
*** ChampSim Multicore Out-of-Order Simulator ***

Warmup Instructions: 25000000
Simulation Instructions: 25000000
Number of CPUs: 1
LLC sets: 2048
LLC ways: 16
Off-chip DRAM Size: 4096 MB Channels: 1 Width: 64-bit Data Rate: 6400 MT/s
CPU 0 runs ../../traces/trace2.champsimtrace.xz
.xz
BTB has LRU replacement policy
ITLB has LRU replacement policy
DTLB has LRU replacement policy
STLB has LRU replacement policy
L1I has LRU replacement policy
L1D has LRU replacement policy
L2C has LRU replacement policy
LLC has LRU replacement policy
Heartbeat CPU 0 instructions: 10000000 cycles: 2546615 heartbeat IPC: 3.92678 cumulative IPC: 3.92678 (Simulation time: 0 hr 0 min 16 sec) 
Heartbeat CPU 0 instructions: 20000007 cycles: 5091446 heartbeat IPC: 3.92954 cumulative IPC: 3.92816 (Simulation time: 0 hr 0 min 27 sec) 

Warmup complete CPU 0 instructions: 25000002 cycles: 6362739 (Simulation time: 0 hr 0 min 33 sec) 

Heartbeat CPU 0 instructions: 30000000 cycles: 13103266 heartbeat IPC: 1.24815 cumulative IPC: 0.741781 (Simulation time: 0 hr 0 min 55 sec) 
Heartbeat CPU 0 instructions: 40000005 cycles: 26513760 heartbeat IPC: 0.745685 cumulative IPC: 0.744379 (Simulation time: 0 hr 1 min 37 sec) 
Heartbeat CPU 0 instructions: 50000004 cycles: 40162634 heartbeat IPC: 0.732661 cumulative IPC: 0.739647 (Simulation time: 0 hr 2 min 19 sec) 
Finished CPU 0 instructions: 25000002 cycles: 33799895 cumulative IPC: 0.739647 (Simulation time: 0 hr 2 min 19 sec) 

ChampSim completed all CPUs

Region of Interest Statistics

CPU 0 cumulative IPC: 0.739647 instructions: 25000002 cycles: 33799895
ITLB TOTAL     ACCESS:    3535647  HIT:    3535647  MISS:          0  HIT %:        100  MISS %:          0   MPKI: 0
ITLB LOAD TRANSLATION ACCESS:    3535647  HIT:    3535647  MISS:          0  HIT %:        100  MISS %:          0   MPKI: 0
ITLB PREFETCH  REQUESTED:          0  ISSUED:          0  USEFUL:          0  USELESS:          0
ITLB USEFUL LOAD PREFETCHES:          0 PREFETCH ISSUED TO LOWER LEVEL:          0  ACCURACY: -nan
ITLB TIMELY PREFETCHES:          0 LATE PREFETCHES: 0 DROPPED PREFETCHES: 0
ITLB PREFETCHES SAME FILL-ORIGIN LEVEL: 0 DIFFERENT FILL-ORIGIN LEVEL: 0
ITLB AVERAGE MISS LATENCY: -nan cycles
ITLB RQ	ACCESS:    4487927	FORWARD:          0	MERGED:     952280	TO_CACHE:    3535647

DTLB TOTAL     ACCESS:    3528983  HIT:    3494935  MISS:      34048  HIT %:    99.0352  MISS %:   0.964811   MPKI: 1.36192
DTLB LOAD TRANSLATION ACCESS:    3528983  HIT:    3494935  MISS:      34048  HIT %:    99.0352  MISS %:   0.964811   MPKI: 1.36192
DTLB PREFETCH  REQUESTED:          0  ISSUED:          0  USEFUL:          0  USELESS:          0
DTLB USEFUL LOAD PREFETCHES:          0 PREFETCH ISSUED TO LOWER LEVEL:          0  ACCURACY: -nan
DTLB TIMELY PREFETCHES:          0 LATE PREFETCHES: 0 DROPPED PREFETCHES: 0
DTLB PREFETCHES SAME FILL-ORIGIN LEVEL: 0 DIFFERENT FILL-ORIGIN LEVEL: 0
DTLB AVERAGE MISS LATENCY: 83.5732 cycles
DTLB RQ	ACCESS:    5684939	FORWARD:          0	MERGED:    2137307	TO_CACHE:    3547632

STLB TOTAL     ACCESS:      34048  HIT:      15572  MISS:      18476  HIT %:    45.7354  MISS %:    54.2646   MPKI: 0.73904
STLB LOAD TRANSLATION ACCESS:      34048  HIT:      15572  MISS:      18476  HIT %:    45.7354  MISS %:    54.2646   MPKI: 0.73904
STLB PREFETCH  REQUESTED:          0  ISSUED:          0  USEFUL:          0  USELESS:          0
STLB USEFUL LOAD PREFETCHES:          0 PREFETCH ISSUED TO LOWER LEVEL:          0  ACCURACY: -nan
STLB TIMELY PREFETCHES:          0 LATE PREFETCHES: 0 DROPPED PREFETCHES: 0
STLB PREFETCHES SAME FILL-ORIGIN LEVEL: 0 DIFFERENT FILL-ORIGIN LEVEL: 0
STLB AVERAGE MISS LATENCY: 136.473 cycles
STLB RQ	ACCESS:      34048	FORWARD:          0	MERGED:          0	TO_CACHE:      34048

STLB Hit, L1D data hit: 0
STLB Hit, L2C data hit: 0
STLB Hit, LLC data hit: 0
STLB Hit, LLC data miss: 0
STLB STLB hints to L2: 0
L1D TOTAL     ACCESS:    5553148  HIT:    3602595  MISS:    1950553  HIT %:    64.8748  MISS %:    35.1252   MPKI: 78.0221
L1D LOAD      ACCESS:    1129999  HIT:     834446  MISS:     295553  HIT %:    73.8448  MISS %:    26.1552   MPKI: 11.8221
L1D RFO       ACCESS:    4423149  HIT:    2768149  MISS:    1655000  HIT %:    62.5832  MISS %:    37.4168   MPKI: 66.2
L1D PREFETCH  REQUESTED:          0  ISSUED:          0  USEFUL:          0  USELESS:          0
L1D USEFUL LOAD PREFETCHES:          0 PREFETCH ISSUED TO LOWER LEVEL:          0  ACCURACY: -nan
L1D TIMELY PREFETCHES:          0 LATE PREFETCHES: 0 DROPPED PREFETCHES: 0
L1D PREFETCHES SAME FILL-ORIGIN LEVEL: 0 DIFFERENT FILL-ORIGIN LEVEL: 0
L1D AVERAGE MISS LATENCY: 194.039 cycles
L1D RQ	ACCESS:    4175682	FORWARD:          0	MERGED:    2717239	TO_CACHE:    1235683
L1D WQ	ACCESS:    4596609	FORWARD:     222760	MERGED:     147353	TO_CACHE:    4449256

L1D UNIQUE REGIONS ACCESSED: 0
L1D REGIONS CONFLICTS: 0
L1D Cross Page Prefetch Requests: 0
L1D Same Page Prefetch Requests: 0
L1D ROI Sum of L1D PQ occupancy: 0
L1D PREFETCHES PUSHED FROM L2C: 0
L1I TOTAL     ACCESS:    4487925  HIT:    4487925  MISS:          0  HIT %:        100  MISS %:          0   MPKI: 0
L1I LOAD      ACCESS:    4487925  HIT:    4487925  MISS:          0  HIT %:        100  MISS %:          0   MPKI: 0
L1I PREFETCH  REQUESTED:          0  ISSUED:          0  USEFUL:          0  USELESS:          0
L1I USEFUL LOAD PREFETCHES:          0 PREFETCH ISSUED TO LOWER LEVEL:          0  ACCURACY: -nan
L1I TIMELY PREFETCHES:          0 LATE PREFETCHES: 0 DROPPED PREFETCHES: 0
L1I PREFETCHES SAME FILL-ORIGIN LEVEL: 0 DIFFERENT FILL-ORIGIN LEVEL: 0
L1I AVERAGE MISS LATENCY: -nan cycles
L1I RQ	ACCESS:    6548302	FORWARD:          0	MERGED:    2060375	TO_CACHE:    4487927

BTB TOTAL     ACCESS:     446811  HIT:     446805  MISS:          6  HIT %:    99.9987  MISS %: 0.00134285   MPKI: 0.00024
BTB BRANCH_DIRECT_JUMP	ACCESS:      72121  HIT:      72120  MISS:          1
BTB BRANCH_INDIRECT	ACCESS:          0  HIT:          0  MISS:          0
BTB BRANCH_CONDITIONAL	ACCESS:     374690  HIT:     374685  MISS:          5
BTB BRANCH_DIRECT_CALL	ACCESS:          0  HIT:          0  MISS:          0
BTB BRANCH_INDIRECT_CALL	ACCESS:          0  HIT:          0  MISS:          0
BTB BRANCH_RETURN	ACCESS:          0  HIT:          0  MISS:          0
BTB BRANCH_OTHER ACCESS:          0  HIT:          0  MISS:          0

L2C TOTAL     ACCESS:    3919584  HIT:    2727456  MISS:    1192128  HIT %:    69.5853  MISS %:    30.4147   MPKI: 47.6851
L2C LOAD      ACCESS:     295553  HIT:         25  MISS:     295528  HIT %: 0.00845872  MISS %:    99.9915   MPKI: 11.8211
L2C DATA LOAD MPKI: 11.8211
L2C INSTRUCTION LOAD MPKI: 0
L2C RFO       ACCESS:    1655000  HIT:     760804  MISS:     894196  HIT %:      45.97  MISS %:      54.03   MPKI: 35.7678
L2C WRITEBACK ACCESS:    1950553  HIT:    1950484  MISS:         69  HIT %:    99.9965  MISS %: 0.00353746   MPKI: 0.00276
L2C LOAD TRANSLATION ACCESS:      18478  HIT:      16143  MISS:       2335  HIT %:    87.3634  MISS %:    12.6366   MPKI: 0.0934
L2C PREFETCH  REQUESTED:          0  ISSUED:          0  USEFUL:          0  USELESS:          0
L2C USEFUL LOAD PREFETCHES:          0 PREFETCH ISSUED TO LOWER LEVEL:          0  ACCURACY: -nan
L2C TIMELY PREFETCHES:          0 LATE PREFETCHES: 0 DROPPED PREFETCHES: 0
L2C PREFETCHES SAME FILL-ORIGIN LEVEL: 0 DIFFERENT FILL-ORIGIN LEVEL: 0
L2C AVERAGE MISS LATENCY: 291.179 cycles
L2C RQ	ACCESS:    1969036	FORWARD:          0	MERGED:          0	TO_CACHE:    1969036
L2C WQ	ACCESS:    1950553	FORWARD:          0	MERGED:          0	TO_CACHE:    1950553

L2C Instructions Evicting Data 0
L2C Translations Evicting Data 2310
L2C Data Evicting Data 1187413
L2C Instructions Evicting Instructions 0
L2C Translations Evicting Instructions 0
L2C Data Evicting Instructions 0
L2C Instructions Evicting Translations 0
L2C Translations Evicting Translations 25
L2C Data Evicting Translations 2311
L2C Dense regions hint from L2: 0
PSCL5 TOTAL     ACCESS:      18476  HIT:      18476  MISS:          0  HIT %:        100  MISS %:          0   MPKI: 0
PSCL5 LOAD TRANSLATION ACCESS:      18476  HIT:      18476  MISS:          0  HIT %:        100  MISS %:          0   MPKI: 0
PSCL5 PREFETCH  REQUESTED:          0  ISSUED:          0  USEFUL:          0  USELESS:          0
PSCL5 USEFUL LOAD PREFETCHES:          0 PREFETCH ISSUED TO LOWER LEVEL:          0  ACCURACY: -nan
PSCL5 TIMELY PREFETCHES:          0 LATE PREFETCHES: 0 DROPPED PREFETCHES: 0
PSCL5 PREFETCHES SAME FILL-ORIGIN LEVEL: 0 DIFFERENT FILL-ORIGIN LEVEL: 0

PSCL4 TOTAL     ACCESS:      18476  HIT:      18476  MISS:          0  HIT %:        100  MISS %:          0   MPKI: 0
PSCL4 LOAD TRANSLATION ACCESS:      18476  HIT:      18476  MISS:          0  HIT %:        100  MISS %:          0   MPKI: 0
PSCL4 PREFETCH  REQUESTED:          0  ISSUED:          0  USEFUL:          0  USELESS:          0
PSCL4 USEFUL LOAD PREFETCHES:          0 PREFETCH ISSUED TO LOWER LEVEL:          0  ACCURACY: -nan
PSCL4 TIMELY PREFETCHES:          0 LATE PREFETCHES: 0 DROPPED PREFETCHES: 0
PSCL4 PREFETCHES SAME FILL-ORIGIN LEVEL: 0 DIFFERENT FILL-ORIGIN LEVEL: 0

PSCL3 TOTAL     ACCESS:      18476  HIT:      18476  MISS:          0  HIT %:        100  MISS %:          0   MPKI: 0
PSCL3 LOAD TRANSLATION ACCESS:      18476  HIT:      18476  MISS:          0  HIT %:        100  MISS %:          0   MPKI: 0
PSCL3 PREFETCH  REQUESTED:          0  ISSUED:          0  USEFUL:          0  USELESS:          0
PSCL3 USEFUL LOAD PREFETCHES:          0 PREFETCH ISSUED TO LOWER LEVEL:          0  ACCURACY: -nan
PSCL3 TIMELY PREFETCHES:          0 LATE PREFETCHES: 0 DROPPED PREFETCHES: 0
PSCL3 PREFETCHES SAME FILL-ORIGIN LEVEL: 0 DIFFERENT FILL-ORIGIN LEVEL: 0

PSCL2 TOTAL     ACCESS:      18476  HIT:      18456  MISS:         20  HIT %:    99.8918  MISS %:   0.108249   MPKI: 0.0008
PSCL2 LOAD TRANSLATION ACCESS:      18476  HIT:      18456  MISS:         20  HIT %:    99.8918  MISS %:   0.108249   MPKI: 0.0008
PSCL2 PREFETCH  REQUESTED:          0  ISSUED:          0  USEFUL:          0  USELESS:          0
PSCL2 USEFUL LOAD PREFETCHES:          0 PREFETCH ISSUED TO LOWER LEVEL:          0  ACCURACY: -nan
PSCL2 TIMELY PREFETCHES:          0 LATE PREFETCHES: 0 DROPPED PREFETCHES: 0
PSCL2 PREFETCHES SAME FILL-ORIGIN LEVEL: 0 DIFFERENT FILL-ORIGIN LEVEL: 0

LLC TOTAL     ACCESS:    2384179  HIT:    1199682  MISS:    1184497  HIT %:    50.3185  MISS %:    49.6815   MPKI: 47.3799
LLC LOAD      ACCESS:     295528  HIT:          1  MISS:     295527  HIT %: 0.000338377  MISS %:    99.9997   MPKI: 11.8211
LLC RFO       ACCESS:     894188  HIT:       7610  MISS:     886578  HIT %:   0.851051  MISS %:    99.1489   MPKI: 35.4631
LLC WRITEBACK ACCESS:    1192128  HIT:    1192071  MISS:         57  HIT %:    99.9952  MISS %: 0.00478137   MPKI: 0.00228
LLC LOAD TRANSLATION ACCESS:       2335  HIT:          0  MISS:       2335  HIT %:          0  MISS %:        100   MPKI: 0.0934
LLC PREFETCH  REQUESTED:          0  ISSUED:          0  USEFUL:          0  USELESS:          0
LLC USEFUL LOAD PREFETCHES:          0 PREFETCH ISSUED TO LOWER LEVEL:          0  ACCURACY: -nan
LLC TIMELY PREFETCHES:          0 LATE PREFETCHES: 0 DROPPED PREFETCHES: 0
LLC PREFETCHES SAME FILL-ORIGIN LEVEL: 0 DIFFERENT FILL-ORIGIN LEVEL: 0
LLC AVERAGE MISS LATENCY: 261.446 cycles
LLC RQ	ACCESS:    1192064	FORWARD:          0	MERGED:          0	TO_CACHE:    1192056
LLC WQ	ACCESS:    1192128	FORWARD:          8	MERGED:          0	TO_CACHE:    1192128

LLC Dense regions hint to LLC: 0

RAW hits: 2336638
Reg RAW dependents: 19581014
Loads Generated: 6512320
Loads sent to L1D: 4175682
Stores Generated: 4596601
Stores sent to L1D: 4596609
Major fault: 0 Minor fault: 21636
Allocated PAGES: 21636
Average branch resolution latency (in cycles): 41.7361

DRAM Statistics
 CHANNEL 0
 RQ ROW_BUFFER_HIT:     190805  ROW_BUFFER_MISS:     993637
 DBUS_CONGESTED:          1
 WQ ROW_BUFFER_HIT:          8  ROW_BUFFER_MISS:         49  FULL:          0

 AVG_CONGESTED_CYCLE: 1
 All warmup complete: 2
Channel 0 Bank busy for read cycles: 0
Channel 0 Bank busy for write cycles: 0
Channel 0
Rank 0
0banks busy for read cycles: 1952286
0banks busy for write cycles: 25
1banks busy for read cycles: 2353851
1banks busy for write cycles: 36044
2banks busy for read cycles: 892545
2banks busy for write cycles: 19599
3banks busy for read cycles: 2131591
3banks busy for write cycles: 3412
4banks busy for read cycles: 5362001
4banks busy for write cycles: 2569
5banks busy for read cycles: 7209542
5banks busy for write cycles: 7227
6banks busy for read cycles: 7683304
6banks busy for write cycles: 2904
7banks busy for read cycles: 4683810
7banks busy for write cycles: 0
8banks busy for read cycles: 1459186
8banks busy for write cycles: 0

CPU 0 Branch Prediction Accuracy: 97.0469% MPKI: 0.5278 Average ROB Occupancy at Mispredict: 277.639
Branch types
NOT_BRANCH: 24553121 98.2125%
BRANCH_DIRECT_JUMP: 72121 0.288484%
BRANCH_INDIRECT: 0 0%
BRANCH_CONDITIONAL: 374692 1.49877%
BRANCH_DIRECT_CALL: 0 0%
BRANCH_INDIRECT_CALL: 0 0%
BRANCH_RETURN: 0 0%
BRANCH_OTHER: 0 0%

DRAM PAGES: 1048576
Allocated PAGES: 21636
