
*** ChampSim Multicore Out-of-Order Simulator ***

Warmup Instructions: 25000000
Simulation Instructions: 25000000
Number of CPUs: 1
LLC sets: 2048
LLC ways: 16
Off-chip DRAM Size: 4096 MB Channels: 1 Width: 64-bit Data Rate: 6400 MT/s
CPU 0 runs ../../traces/trace4.champsimtrace.xz
.xz
BTB has LRU replacement policy
ITLB has LRU replacement policy
DTLB has LRU replacement policy
STLB has LRU replacement policy
L1I has LRU replacement policy
L1D has LRU replacement policy
L2C has LRU replacement policy
LLC has LRU replacement policy
Heartbeat CPU 0 instructions: 10000007 cycles: 2547565 heartbeat IPC: 3.92532 cumulative IPC: 3.92532 (Simulation time: 0 hr 0 min 11 sec) 
Heartbeat CPU 0 instructions: 20000003 cycles: 5091617 heartbeat IPC: 3.93074 cumulative IPC: 3.92803 (Simulation time: 0 hr 0 min 22 sec) 

Warmup complete CPU 0 instructions: 25000001 cycles: 6366398 (Simulation time: 0 hr 0 min 28 sec) 

Heartbeat CPU 0 instructions: 30000000 cycles: 16933007 heartbeat IPC: 0.844495 cumulative IPC: 0.473189 (Simulation time: 0 hr 0 min 57 sec) 
Heartbeat CPU 0 instructions: 40000000 cycles: 38602828 heartbeat IPC: 0.461471 cumulative IPC: 0.465312 (Simulation time: 0 hr 1 min 58 sec) 
Heartbeat CPU 0 instructions: 50000006 cycles: 60446698 heartbeat IPC: 0.457795 cumulative IPC: 0.462276 (Simulation time: 0 hr 2 min 58 sec) 
Finished CPU 0 instructions: 25000005 cycles: 54080300 cumulative IPC: 0.462276 (Simulation time: 0 hr 2 min 58 sec) 

ChampSim completed all CPUs

Region of Interest Statistics

CPU 0 cumulative IPC: 0.462276 instructions: 25000005 cycles: 54080300
ITLB TOTAL     ACCESS:    3568277  HIT:    3568277  MISS:          0  HIT %:        100  MISS %:          0   MPKI: 0
ITLB LOAD TRANSLATION ACCESS:    3568277  HIT:    3568277  MISS:          0  HIT %:        100  MISS %:          0   MPKI: 0
ITLB PREFETCH  REQUESTED:          0  ISSUED:          0  USEFUL:          0  USELESS:          0
ITLB USEFUL LOAD PREFETCHES:          0 PREFETCH ISSUED TO LOWER LEVEL:          0  ACCURACY: -nan
ITLB TIMELY PREFETCHES:          0 LATE PREFETCHES: 0 DROPPED PREFETCHES: 0
ITLB PREFETCHES SAME FILL-ORIGIN LEVEL: 0 DIFFERENT FILL-ORIGIN LEVEL: 0
ITLB AVERAGE MISS LATENCY: -nan cycles
ITLB RQ	ACCESS:    4518902	FORWARD:          0	MERGED:     950625	TO_CACHE:    3568277

DTLB TOTAL     ACCESS:    3540629  HIT:    3506707  MISS:      33922  HIT %:    99.0419  MISS %:   0.958078   MPKI: 1.35688
DTLB LOAD TRANSLATION ACCESS:    3540629  HIT:    3506707  MISS:      33922  HIT %:    99.0419  MISS %:   0.958078   MPKI: 1.35688
DTLB PREFETCH  REQUESTED:          0  ISSUED:          0  USEFUL:          0  USELESS:          0
DTLB USEFUL LOAD PREFETCHES:          0 PREFETCH ISSUED TO LOWER LEVEL:          0  ACCURACY: -nan
DTLB TIMELY PREFETCHES:          0 LATE PREFETCHES: 0 DROPPED PREFETCHES: 0
DTLB PREFETCHES SAME FILL-ORIGIN LEVEL: 0 DIFFERENT FILL-ORIGIN LEVEL: 0
DTLB AVERAGE MISS LATENCY: 112.791 cycles
DTLB RQ	ACCESS:    5600799	FORWARD:          0	MERGED:    2043786	TO_CACHE:    3557013

STLB TOTAL     ACCESS:      33922  HIT:      15518  MISS:      18404  HIT %:    45.7461  MISS %:    54.2539   MPKI: 0.73616
STLB LOAD TRANSLATION ACCESS:      33922  HIT:      15518  MISS:      18404  HIT %:    45.7461  MISS %:    54.2539   MPKI: 0.73616
STLB PREFETCH  REQUESTED:          0  ISSUED:          0  USEFUL:          0  USELESS:          0
STLB USEFUL LOAD PREFETCHES:          0 PREFETCH ISSUED TO LOWER LEVEL:          0  ACCURACY: -nan
STLB TIMELY PREFETCHES:          0 LATE PREFETCHES: 0 DROPPED PREFETCHES: 0
STLB PREFETCHES SAME FILL-ORIGIN LEVEL: 0 DIFFERENT FILL-ORIGIN LEVEL: 0
STLB AVERAGE MISS LATENCY: 190.252 cycles
STLB RQ	ACCESS:      33922	FORWARD:          0	MERGED:          0	TO_CACHE:      33922

STLB Hit, L1D data hit: 0
STLB Hit, L2C data hit: 0
STLB Hit, LLC data hit: 0
STLB Hit, LLC data miss: 0
STLB STLB hints to L2: 0
L1D TOTAL     ACCESS:    5482581  HIT:    3539491  MISS:    1943090  HIT %:    64.5588  MISS %:    35.4412   MPKI: 77.7236
L1D LOAD      ACCESS:    1091221  HIT:     796774  MISS:     294447  HIT %:    73.0167  MISS %:    26.9833   MPKI: 11.7779
L1D RFO       ACCESS:    4391360  HIT:    2742717  MISS:    1648643  HIT %:    62.4571  MISS %:    37.5429   MPKI: 65.9457
L1D PREFETCH  REQUESTED:          0  ISSUED:          0  USEFUL:          0  USELESS:          0
L1D USEFUL LOAD PREFETCHES:          0 PREFETCH ISSUED TO LOWER LEVEL:          0  ACCURACY: -nan
L1D TIMELY PREFETCHES:          0 LATE PREFETCHES: 0 DROPPED PREFETCHES: 0
L1D PREFETCHES SAME FILL-ORIGIN LEVEL: 0 DIFFERENT FILL-ORIGIN LEVEL: 0
L1D AVERAGE MISS LATENCY: 344.347 cycles
L1D RQ	ACCESS:    4153312	FORWARD:          0	MERGED:    2741787	TO_CACHE:    1188317
L1D WQ	ACCESS:    4590390	FORWARD:     223208	MERGED:     177908	TO_CACHE:    4412482

L1D UNIQUE REGIONS ACCESSED: 0
L1D REGIONS CONFLICTS: 0
L1D Cross Page Prefetch Requests: 0
L1D Same Page Prefetch Requests: 0
L1D ROI Sum of L1D PQ occupancy: 0
L1D PREFETCHES PUSHED FROM L2C: 0
L1I TOTAL     ACCESS:    4518900  HIT:    4518900  MISS:          0  HIT %:        100  MISS %:          0   MPKI: 0
L1I LOAD      ACCESS:    4518900  HIT:    4518900  MISS:          0  HIT %:        100  MISS %:          0   MPKI: 0
L1I PREFETCH  REQUESTED:          0  ISSUED:          0  USEFUL:          0  USELESS:          0
L1I USEFUL LOAD PREFETCHES:          0 PREFETCH ISSUED TO LOWER LEVEL:          0  ACCURACY: -nan
L1I TIMELY PREFETCHES:          0 LATE PREFETCHES: 0 DROPPED PREFETCHES: 0
L1I PREFETCHES SAME FILL-ORIGIN LEVEL: 0 DIFFERENT FILL-ORIGIN LEVEL: 0
L1I AVERAGE MISS LATENCY: -nan cycles
L1I RQ	ACCESS:    6704998	FORWARD:          0	MERGED:    2186096	TO_CACHE:    4518902

BTB TOTAL     ACCESS:     445540  HIT:     445534  MISS:          6  HIT %:    99.9987  MISS %: 0.00134668   MPKI: 0.00024
BTB BRANCH_DIRECT_JUMP	ACCESS:      71616  HIT:      71615  MISS:          1
BTB BRANCH_INDIRECT	ACCESS:          0  HIT:          0  MISS:          0
BTB BRANCH_CONDITIONAL	ACCESS:     373924  HIT:     373919  MISS:          5
BTB BRANCH_DIRECT_CALL	ACCESS:          0  HIT:          0  MISS:          0
BTB BRANCH_INDIRECT_CALL	ACCESS:          0  HIT:          0  MISS:          0
BTB BRANCH_RETURN	ACCESS:          0  HIT:          0  MISS:          0
BTB BRANCH_OTHER ACCESS:          0  HIT:          0  MISS:          0

L2C TOTAL     ACCESS:    3610145  HIT:    2421096  MISS:    1189049  HIT %:    67.0637  MISS %:    32.9363   MPKI: 47.562
L2C LOAD      ACCESS:     294447  HIT:         26  MISS:     294421  HIT %: 0.00883011  MISS %:    99.9912   MPKI: 11.7768
L2C DATA LOAD MPKI: 11.7768
L2C INSTRUCTION LOAD MPKI: 0
L2C RFO       ACCESS:    1648643  HIT:     756413  MISS:     892230  HIT %:    45.8809  MISS %:    54.1191   MPKI: 35.6892
L2C WRITEBACK ACCESS:    1648649  HIT:    1648577  MISS:         72  HIT %:    99.9956  MISS %: 0.00436721   MPKI: 0.00288
L2C LOAD TRANSLATION ACCESS:      18406  HIT:      16080  MISS:       2326  HIT %:    87.3628  MISS %:    12.6372   MPKI: 0.09304
L2C PREFETCH  REQUESTED:          0  ISSUED:          0  USEFUL:          0  USELESS:          0
L2C USEFUL LOAD PREFETCHES:          0 PREFETCH ISSUED TO LOWER LEVEL:          0  ACCURACY: -nan
L2C TIMELY PREFETCHES:          0 LATE PREFETCHES: 0 DROPPED PREFETCHES: 0
L2C PREFETCHES SAME FILL-ORIGIN LEVEL: 0 DIFFERENT FILL-ORIGIN LEVEL: 0
L2C AVERAGE MISS LATENCY: 537.632 cycles
L2C RQ	ACCESS:    1961510	FORWARD:          0	MERGED:          0	TO_CACHE:    1961510
L2C WQ	ACCESS:    1648651	FORWARD:          0	MERGED:          0	TO_CACHE:    1648651

L2C Instructions Evicting Data 0
L2C Translations Evicting Data 2286
L2C Data Evicting Data 1184366
L2C Instructions Evicting Instructions 0
L2C Translations Evicting Instructions 0
L2C Data Evicting Instructions 0
L2C Instructions Evicting Translations 0
L2C Translations Evicting Translations 40
L2C Data Evicting Translations 2285
L2C Dense regions hint from L2: 0
PSCL5 TOTAL     ACCESS:      18404  HIT:      18404  MISS:          0  HIT %:        100  MISS %:          0   MPKI: 0
PSCL5 LOAD TRANSLATION ACCESS:      18404  HIT:      18404  MISS:          0  HIT %:        100  MISS %:          0   MPKI: 0
PSCL5 PREFETCH  REQUESTED:          0  ISSUED:          0  USEFUL:          0  USELESS:          0
PSCL5 USEFUL LOAD PREFETCHES:          0 PREFETCH ISSUED TO LOWER LEVEL:          0  ACCURACY: -nan
PSCL5 TIMELY PREFETCHES:          0 LATE PREFETCHES: 0 DROPPED PREFETCHES: 0
PSCL5 PREFETCHES SAME FILL-ORIGIN LEVEL: 0 DIFFERENT FILL-ORIGIN LEVEL: 0

PSCL4 TOTAL     ACCESS:      18404  HIT:      18404  MISS:          0  HIT %:        100  MISS %:          0   MPKI: 0
PSCL4 LOAD TRANSLATION ACCESS:      18404  HIT:      18404  MISS:          0  HIT %:        100  MISS %:          0   MPKI: 0
PSCL4 PREFETCH  REQUESTED:          0  ISSUED:          0  USEFUL:          0  USELESS:          0
PSCL4 USEFUL LOAD PREFETCHES:          0 PREFETCH ISSUED TO LOWER LEVEL:          0  ACCURACY: -nan
PSCL4 TIMELY PREFETCHES:          0 LATE PREFETCHES: 0 DROPPED PREFETCHES: 0
PSCL4 PREFETCHES SAME FILL-ORIGIN LEVEL: 0 DIFFERENT FILL-ORIGIN LEVEL: 0

PSCL3 TOTAL     ACCESS:      18404  HIT:      18404  MISS:          0  HIT %:        100  MISS %:          0   MPKI: 0
PSCL3 LOAD TRANSLATION ACCESS:      18404  HIT:      18404  MISS:          0  HIT %:        100  MISS %:          0   MPKI: 0
PSCL3 PREFETCH  REQUESTED:          0  ISSUED:          0  USEFUL:          0  USELESS:          0
PSCL3 USEFUL LOAD PREFETCHES:          0 PREFETCH ISSUED TO LOWER LEVEL:          0  ACCURACY: -nan
PSCL3 TIMELY PREFETCHES:          0 LATE PREFETCHES: 0 DROPPED PREFETCHES: 0
PSCL3 PREFETCHES SAME FILL-ORIGIN LEVEL: 0 DIFFERENT FILL-ORIGIN LEVEL: 0

PSCL2 TOTAL     ACCESS:      18404  HIT:      18384  MISS:         20  HIT %:    99.8913  MISS %:   0.108672   MPKI: 0.0008
PSCL2 LOAD TRANSLATION ACCESS:      18404  HIT:      18384  MISS:         20  HIT %:    99.8913  MISS %:   0.108672   MPKI: 0.0008
PSCL2 PREFETCH  REQUESTED:          0  ISSUED:          0  USEFUL:          0  USELESS:          0
PSCL2 USEFUL LOAD PREFETCHES:          0 PREFETCH ISSUED TO LOWER LEVEL:          0  ACCURACY: -nan
PSCL2 TIMELY PREFETCHES:          0 LATE PREFETCHES: 0 DROPPED PREFETCHES: 0
PSCL2 PREFETCHES SAME FILL-ORIGIN LEVEL: 0 DIFFERENT FILL-ORIGIN LEVEL: 0

LLC TOTAL     ACCESS:    2081686  HIT:     901784  MISS:    1179902  HIT %:    43.3199  MISS %:    56.6801   MPKI: 47.1961
LLC LOAD      ACCESS:     294421  HIT:         17  MISS:     294404  HIT %: 0.00577404  MISS %:    99.9942   MPKI: 11.7762
LLC RFO       ACCESS:     892227  HIT:       9102  MISS:     883125  HIT %:    1.02014  MISS %:    98.9799   MPKI: 35.325
LLC WRITEBACK ACCESS:     892712  HIT:     892665  MISS:         47  HIT %:    99.9947  MISS %: 0.00526486   MPKI: 0.00188
LLC LOAD TRANSLATION ACCESS:       2326  HIT:          0  MISS:       2326  HIT %:          0  MISS %:        100   MPKI: 0.09304
LLC PREFETCH  REQUESTED:          0  ISSUED:          0  USEFUL:          0  USELESS:          0
LLC USEFUL LOAD PREFETCHES:          0 PREFETCH ISSUED TO LOWER LEVEL:          0  ACCURACY: -nan
LLC TIMELY PREFETCHES:          0 LATE PREFETCHES: 0 DROPPED PREFETCHES: 0
LLC PREFETCHES SAME FILL-ORIGIN LEVEL: 0 DIFFERENT FILL-ORIGIN LEVEL: 0
LLC AVERAGE MISS LATENCY: 510.675 cycles
LLC RQ	ACCESS:    1188990	FORWARD:          0	MERGED:          0	TO_CACHE:    1188987
LLC WQ	ACCESS:     892712	FORWARD:          3	MERGED:          0	TO_CACHE:     892712

LLC Dense regions hint to LLC: 0

RAW hits: 2354288
Reg RAW dependents: 19564274
Loads Generated: 6507600
Loads sent to L1D: 4153312
Stores Generated: 4590431
Stores sent to L1D: 4590390
Major fault: 0 Minor fault: 21552
Allocated PAGES: 21552
Average branch resolution latency (in cycles): 59.646

DRAM Statistics
 CHANNEL 0
 RQ ROW_BUFFER_HIT:      83559  ROW_BUFFER_MISS:    1096296
 DBUS_CONGESTED:          0
 WQ ROW_BUFFER_HIT:     192157  ROW_BUFFER_MISS:     690779  FULL:          0

 AVG_CONGESTED_CYCLE: -
 All warmup complete: 2
Channel 0 Bank busy for read cycles: 0
Channel 0 Bank busy for write cycles: 0
Channel 0
Rank 0
0banks busy for read cycles: 20898
0banks busy for write cycles: 0
1banks busy for read cycles: 2409763
1banks busy for write cycles: 93898
2banks busy for read cycles: 664822
2banks busy for write cycles: 93898
3banks busy for read cycles: 664103
3banks busy for write cycles: 93898
4banks busy for read cycles: 6250582
4banks busy for write cycles: 94017
5banks busy for read cycles: 6845239
5banks busy for write cycles: 93897
6banks busy for read cycles: 6681489
6banks busy for write cycles: 94026
7banks busy for read cycles: 6166979
7banks busy for write cycles: 979339
8banks busy for read cycles: 5177020
8banks busy for write cycles: 17656433

CPU 0 Branch Prediction Accuracy: 97.1089% MPKI: 0.51524 Average ROB Occupancy at Mispredict: 286.672
Branch types
NOT_BRANCH: 24554737 98.2189%
BRANCH_DIRECT_JUMP: 71616 0.286464%
BRANCH_INDIRECT: 0 0%
BRANCH_CONDITIONAL: 373925 1.4957%
BRANCH_DIRECT_CALL: 0 0%
BRANCH_INDIRECT_CALL: 0 0%
BRANCH_RETURN: 0 0%
BRANCH_OTHER: 0 0%

DRAM PAGES: 1048576
Allocated PAGES: 21552
