
*** ChampSim Multicore Out-of-Order Simulator ***

Warmup Instructions: 25000000
Simulation Instructions: 25000000
Number of CPUs: 1
LLC sets: 2048
LLC ways: 16
Off-chip DRAM Size: 4096 MB Channels: 1 Width: 64-bit Data Rate: 6400 MT/s
CPU 0 runs ../../traces/trace2.champsimtrace.xz
.xz
BTB has LRU replacement policy
ITLB has LRU replacement policy
DTLB has LRU replacement policy
STLB has LRU replacement policy
L1I has LRU replacement policy
L1D has LRU replacement policy
L2C has LRU replacement policy
LLC has LRU replacement policy
Heartbeat CPU 0 instructions: 10000000 cycles: 2546616 heartbeat IPC: 3.92678 cumulative IPC: 3.92678 (Simulation time: 0 hr 0 min 11 sec) 
Heartbeat CPU 0 instructions: 20000007 cycles: 5091447 heartbeat IPC: 3.92954 cumulative IPC: 3.92816 (Simulation time: 0 hr 0 min 23 sec) 

Warmup complete CPU 0 instructions: 25000002 cycles: 6362740 (Simulation time: 0 hr 0 min 28 sec) 

Heartbeat CPU 0 instructions: 30000000 cycles: 17105963 heartbeat IPC: 0.832326 cumulative IPC: 0.465409 (Simulation time: 0 hr 0 min 58 sec) 
Heartbeat CPU 0 instructions: 40000005 cycles: 38524319 heartbeat IPC: 0.466889 cumulative IPC: 0.466395 (Simulation time: 0 hr 1 min 58 sec) 
Heartbeat CPU 0 instructions: 50000004 cycles: 60443910 heartbeat IPC: 0.456213 cumulative IPC: 0.462268 (Simulation time: 0 hr 3 min 0 sec) 
Finished CPU 0 instructions: 25000002 cycles: 54081170 cumulative IPC: 0.462268 (Simulation time: 0 hr 3 min 0 sec) 

ChampSim completed all CPUs

Region of Interest Statistics

CPU 0 cumulative IPC: 0.462268 instructions: 25000002 cycles: 54081170
ITLB TOTAL     ACCESS:    3566072  HIT:    3566072  MISS:          0  HIT %:        100  MISS %:          0   MPKI: 0
ITLB LOAD TRANSLATION ACCESS:    3566072  HIT:    3566072  MISS:          0  HIT %:        100  MISS %:          0   MPKI: 0
ITLB PREFETCH  REQUESTED:          0  ISSUED:          0  USEFUL:          0  USELESS:          0
ITLB USEFUL LOAD PREFETCHES:          0 PREFETCH ISSUED TO LOWER LEVEL:          0  ACCURACY: -nan
ITLB TIMELY PREFETCHES:          0 LATE PREFETCHES: 0 DROPPED PREFETCHES: 0
ITLB PREFETCHES SAME FILL-ORIGIN LEVEL: 0 DIFFERENT FILL-ORIGIN LEVEL: 0
ITLB AVERAGE MISS LATENCY: -nan cycles
ITLB RQ	ACCESS:    4515075	FORWARD:          0	MERGED:     949003	TO_CACHE:    3566072

DTLB TOTAL     ACCESS:    3539939  HIT:    3505891  MISS:      34048  HIT %:    99.0382  MISS %:   0.961824   MPKI: 1.36192
DTLB LOAD TRANSLATION ACCESS:    3539939  HIT:    3505891  MISS:      34048  HIT %:    99.0382  MISS %:   0.961824   MPKI: 1.36192
DTLB PREFETCH  REQUESTED:          0  ISSUED:          0  USEFUL:          0  USELESS:          0
DTLB USEFUL LOAD PREFETCHES:          0 PREFETCH ISSUED TO LOWER LEVEL:          0  ACCURACY: -nan
DTLB TIMELY PREFETCHES:          0 LATE PREFETCHES: 0 DROPPED PREFETCHES: 0
DTLB PREFETCHES SAME FILL-ORIGIN LEVEL: 0 DIFFERENT FILL-ORIGIN LEVEL: 0
DTLB AVERAGE MISS LATENCY: 112.771 cycles
DTLB RQ	ACCESS:    5625305	FORWARD:          0	MERGED:    2068809	TO_CACHE:    3556496

STLB TOTAL     ACCESS:      34048  HIT:      15572  MISS:      18476  HIT %:    45.7354  MISS %:    54.2646   MPKI: 0.73904
STLB LOAD TRANSLATION ACCESS:      34048  HIT:      15572  MISS:      18476  HIT %:    45.7354  MISS %:    54.2646   MPKI: 0.73904
STLB PREFETCH  REQUESTED:          0  ISSUED:          0  USEFUL:          0  USELESS:          0
STLB USEFUL LOAD PREFETCHES:          0 PREFETCH ISSUED TO LOWER LEVEL:          0  ACCURACY: -nan
STLB TIMELY PREFETCHES:          0 LATE PREFETCHES: 0 DROPPED PREFETCHES: 0
STLB PREFETCHES SAME FILL-ORIGIN LEVEL: 0 DIFFERENT FILL-ORIGIN LEVEL: 0
STLB AVERAGE MISS LATENCY: 190.364 cycles
STLB RQ	ACCESS:      34048	FORWARD:          0	MERGED:          0	TO_CACHE:      34048

STLB Hit, L1D data hit: 0
STLB Hit, L2C data hit: 0
STLB Hit, LLC data hit: 0
STLB Hit, LLC data miss: 0
STLB STLB hints to L2: 0
L1D TOTAL     ACCESS:    5506636  HIT:    3556081  MISS:    1950555  HIT %:    64.5781  MISS %:    35.4219   MPKI: 78.0222
L1D LOAD      ACCESS:    1109354  HIT:     813804  MISS:     295550  HIT %:    73.3584  MISS %:    26.6416   MPKI: 11.822
L1D RFO       ACCESS:    4397282  HIT:    2742277  MISS:    1655005  HIT %:     62.363  MISS %:     37.637   MPKI: 66.2002
L1D PREFETCH  REQUESTED:          0  ISSUED:          0  USEFUL:          0  USELESS:          0
L1D USEFUL LOAD PREFETCHES:          0 PREFETCH ISSUED TO LOWER LEVEL:          0  ACCURACY: -nan
L1D TIMELY PREFETCHES:          0 LATE PREFETCHES: 0 DROPPED PREFETCHES: 0
L1D PREFETCHES SAME FILL-ORIGIN LEVEL: 0 DIFFERENT FILL-ORIGIN LEVEL: 0
L1D AVERAGE MISS LATENCY: 346.243 cycles
L1D RQ	ACCESS:    4162736	FORWARD:          0	MERGED:    2729960	TO_CACHE:    1207002
L1D WQ	ACCESS:    4596609	FORWARD:     225774	MERGED:     178306	TO_CACHE:    4418303

L1D UNIQUE REGIONS ACCESSED: 0
L1D REGIONS CONFLICTS: 0
L1D Cross Page Prefetch Requests: 0
L1D Same Page Prefetch Requests: 0
L1D ROI Sum of L1D PQ occupancy: 0
L1D PREFETCHES PUSHED FROM L2C: 0
L1I TOTAL     ACCESS:    4515073  HIT:    4515073  MISS:          0  HIT %:        100  MISS %:          0   MPKI: 0
L1I LOAD      ACCESS:    4515073  HIT:    4515073  MISS:          0  HIT %:        100  MISS %:          0   MPKI: 0
L1I PREFETCH  REQUESTED:          0  ISSUED:          0  USEFUL:          0  USELESS:          0
L1I USEFUL LOAD PREFETCHES:          0 PREFETCH ISSUED TO LOWER LEVEL:          0  ACCURACY: -nan
L1I TIMELY PREFETCHES:          0 LATE PREFETCHES: 0 DROPPED PREFETCHES: 0
L1I PREFETCHES SAME FILL-ORIGIN LEVEL: 0 DIFFERENT FILL-ORIGIN LEVEL: 0
L1I AVERAGE MISS LATENCY: -nan cycles
L1I RQ	ACCESS:    6675151	FORWARD:          0	MERGED:    2160076	TO_CACHE:    4515075

BTB TOTAL     ACCESS:     446811  HIT:     446805  MISS:          6  HIT %:    99.9987  MISS %: 0.00134285   MPKI: 0.00024
BTB BRANCH_DIRECT_JUMP	ACCESS:      72121  HIT:      72120  MISS:          1
BTB BRANCH_INDIRECT	ACCESS:          0  HIT:          0  MISS:          0
BTB BRANCH_CONDITIONAL	ACCESS:     374690  HIT:     374685  MISS:          5
BTB BRANCH_DIRECT_CALL	ACCESS:          0  HIT:          0  MISS:          0
BTB BRANCH_INDIRECT_CALL	ACCESS:          0  HIT:          0  MISS:          0
BTB BRANCH_RETURN	ACCESS:          0  HIT:          0  MISS:          0
BTB BRANCH_OTHER ACCESS:          0  HIT:          0  MISS:          0

L2C TOTAL     ACCESS:    3624036  HIT:    2431803  MISS:    1192233  HIT %:    67.1021  MISS %:    32.8979   MPKI: 47.6893
L2C LOAD      ACCESS:     295550  HIT:          2  MISS:     295548  HIT %: 0.000676704  MISS %:    99.9993   MPKI: 11.8219
L2C DATA LOAD MPKI: 11.8219
L2C INSTRUCTION LOAD MPKI: 0
L2C RFO       ACCESS:    1655005  HIT:     760701  MISS:     894304  HIT %:    45.9637  MISS %:    54.0363   MPKI: 35.7722
L2C WRITEBACK ACCESS:    1655003  HIT:    1654957  MISS:         46  HIT %:    99.9972  MISS %: 0.00277945   MPKI: 0.00184
L2C LOAD TRANSLATION ACCESS:      18478  HIT:      16143  MISS:       2335  HIT %:    87.3634  MISS %:    12.6366   MPKI: 0.0934
L2C PREFETCH  REQUESTED:          0  ISSUED:          0  USEFUL:          0  USELESS:          0
L2C USEFUL LOAD PREFETCHES:          0 PREFETCH ISSUED TO LOWER LEVEL:          0  ACCURACY: -nan
L2C TIMELY PREFETCHES:          0 LATE PREFETCHES: 0 DROPPED PREFETCHES: 0
L2C PREFETCHES SAME FILL-ORIGIN LEVEL: 0 DIFFERENT FILL-ORIGIN LEVEL: 0
L2C AVERAGE MISS LATENCY: 541.381 cycles
L2C RQ	ACCESS:    1969033	FORWARD:          0	MERGED:          0	TO_CACHE:    1969033
L2C WQ	ACCESS:    1655003	FORWARD:          0	MERGED:          0	TO_CACHE:    1655003

L2C Instructions Evicting Data 0
L2C Translations Evicting Data 2311
L2C Data Evicting Data 1187540
L2C Instructions Evicting Instructions 0
L2C Translations Evicting Instructions 0
L2C Data Evicting Instructions 0
L2C Instructions Evicting Translations 0
L2C Translations Evicting Translations 24
L2C Data Evicting Translations 2312
L2C Dense regions hint from L2: 0
PSCL5 TOTAL     ACCESS:      18476  HIT:      18476  MISS:          0  HIT %:        100  MISS %:          0   MPKI: 0
PSCL5 LOAD TRANSLATION ACCESS:      18476  HIT:      18476  MISS:          0  HIT %:        100  MISS %:          0   MPKI: 0
PSCL5 PREFETCH  REQUESTED:          0  ISSUED:          0  USEFUL:          0  USELESS:          0
PSCL5 USEFUL LOAD PREFETCHES:          0 PREFETCH ISSUED TO LOWER LEVEL:          0  ACCURACY: -nan
PSCL5 TIMELY PREFETCHES:          0 LATE PREFETCHES: 0 DROPPED PREFETCHES: 0
PSCL5 PREFETCHES SAME FILL-ORIGIN LEVEL: 0 DIFFERENT FILL-ORIGIN LEVEL: 0

PSCL4 TOTAL     ACCESS:      18476  HIT:      18476  MISS:          0  HIT %:        100  MISS %:          0   MPKI: 0
PSCL4 LOAD TRANSLATION ACCESS:      18476  HIT:      18476  MISS:          0  HIT %:        100  MISS %:          0   MPKI: 0
PSCL4 PREFETCH  REQUESTED:          0  ISSUED:          0  USEFUL:          0  USELESS:          0
PSCL4 USEFUL LOAD PREFETCHES:          0 PREFETCH ISSUED TO LOWER LEVEL:          0  ACCURACY: -nan
PSCL4 TIMELY PREFETCHES:          0 LATE PREFETCHES: 0 DROPPED PREFETCHES: 0
PSCL4 PREFETCHES SAME FILL-ORIGIN LEVEL: 0 DIFFERENT FILL-ORIGIN LEVEL: 0

PSCL3 TOTAL     ACCESS:      18476  HIT:      18476  MISS:          0  HIT %:        100  MISS %:          0   MPKI: 0
PSCL3 LOAD TRANSLATION ACCESS:      18476  HIT:      18476  MISS:          0  HIT %:        100  MISS %:          0   MPKI: 0
PSCL3 PREFETCH  REQUESTED:          0  ISSUED:          0  USEFUL:          0  USELESS:          0
PSCL3 USEFUL LOAD PREFETCHES:          0 PREFETCH ISSUED TO LOWER LEVEL:          0  ACCURACY: -nan
PSCL3 TIMELY PREFETCHES:          0 LATE PREFETCHES: 0 DROPPED PREFETCHES: 0
PSCL3 PREFETCHES SAME FILL-ORIGIN LEVEL: 0 DIFFERENT FILL-ORIGIN LEVEL: 0

PSCL2 TOTAL     ACCESS:      18476  HIT:      18456  MISS:         20  HIT %:    99.8918  MISS %:   0.108249   MPKI: 0.0008
PSCL2 LOAD TRANSLATION ACCESS:      18476  HIT:      18456  MISS:         20  HIT %:    99.8918  MISS %:   0.108249   MPKI: 0.0008
PSCL2 PREFETCH  REQUESTED:          0  ISSUED:          0  USEFUL:          0  USELESS:          0
PSCL2 USEFUL LOAD PREFETCHES:          0 PREFETCH ISSUED TO LOWER LEVEL:          0  ACCURACY: -nan
PSCL2 TIMELY PREFETCHES:          0 LATE PREFETCHES: 0 DROPPED PREFETCHES: 0
PSCL2 PREFETCHES SAME FILL-ORIGIN LEVEL: 0 DIFFERENT FILL-ORIGIN LEVEL: 0

LLC TOTAL     ACCESS:    2086812  HIT:     902313  MISS:    1184499  HIT %:    43.2388  MISS %:    56.7612   MPKI: 47.38
LLC LOAD      ACCESS:     295548  HIT:          2  MISS:     295546  HIT %: 0.000676709  MISS %:    99.9993   MPKI: 11.8218
LLC RFO       ACCESS:     894289  HIT:       7706  MISS:     886583  HIT %:    0.86169  MISS %:    99.1383   MPKI: 35.4633
LLC WRITEBACK ACCESS:     894640  HIT:     894605  MISS:         35  HIT %:    99.9961  MISS %: 0.00391219   MPKI: 0.0014
LLC LOAD TRANSLATION ACCESS:       2335  HIT:          0  MISS:       2335  HIT %:          0  MISS %:        100   MPKI: 0.0934
LLC PREFETCH  REQUESTED:          0  ISSUED:          0  USEFUL:          0  USELESS:          0
LLC USEFUL LOAD PREFETCHES:          0 PREFETCH ISSUED TO LOWER LEVEL:          0  ACCURACY: -nan
LLC TIMELY PREFETCHES:          0 LATE PREFETCHES: 0 DROPPED PREFETCHES: 0
LLC PREFETCHES SAME FILL-ORIGIN LEVEL: 0 DIFFERENT FILL-ORIGIN LEVEL: 0
LLC AVERAGE MISS LATENCY: 513.894 cycles
LLC RQ	ACCESS:    1192187	FORWARD:          0	MERGED:          0	TO_CACHE:    1192172
LLC WQ	ACCESS:     894640	FORWARD:         15	MERGED:          0	TO_CACHE:     894640

LLC Dense regions hint to LLC: 0

RAW hits: 2349592
Reg RAW dependents: 19558351
Loads Generated: 6512331
Loads sent to L1D: 4162736
Stores Generated: 4596601
Stores sent to L1D: 4596609
Major fault: 0 Minor fault: 21636
Allocated PAGES: 21636
Average branch resolution latency (in cycles): 59.3988

DRAM Statistics
 CHANNEL 0
 RQ ROW_BUFFER_HIT:      82760  ROW_BUFFER_MISS:    1101704
 DBUS_CONGESTED:          0
 WQ ROW_BUFFER_HIT:     189599  ROW_BUFFER_MISS:     696793  FULL:          0

 AVG_CONGESTED_CYCLE: -
 All warmup complete: 2
Channel 0 Bank busy for read cycles: 0
Channel 0 Bank busy for write cycles: 0
Channel 0
Rank 0
0banks busy for read cycles: 19580
0banks busy for write cycles: 0
1banks busy for read cycles: 2206312
1banks busy for write cycles: 93866
2banks busy for read cycles: 706338
2banks busy for write cycles: 93866
3banks busy for read cycles: 733367
3banks busy for write cycles: 93866
4banks busy for read cycles: 5898314
4banks busy for write cycles: 93866
5banks busy for read cycles: 7007395
5banks busy for write cycles: 93882
6banks busy for read cycles: 6641572
6banks busy for write cycles: 93991
7banks busy for read cycles: 6372934
7banks busy for write cycles: 983414
8banks busy for read cycles: 5252797
8banks busy for write cycles: 17695811

CPU 0 Branch Prediction Accuracy: 97.0469% MPKI: 0.5278 Average ROB Occupancy at Mispredict: 291.081
Branch types
NOT_BRANCH: 24553143 98.2126%
BRANCH_DIRECT_JUMP: 72121 0.288484%
BRANCH_INDIRECT: 0 0%
BRANCH_CONDITIONAL: 374692 1.49877%
BRANCH_DIRECT_CALL: 0 0%
BRANCH_INDIRECT_CALL: 0 0%
BRANCH_RETURN: 0 0%
BRANCH_OTHER: 0 0%

DRAM PAGES: 1048576
Allocated PAGES: 21636
