
*** ChampSim Multicore Out-of-Order Simulator ***

Warmup Instructions: 25000000
Simulation Instructions: 25000000
Number of CPUs: 1
LLC sets: 2048
LLC ways: 16
Off-chip DRAM Size: 4096 MB Channels: 1 Width: 64-bit Data Rate: 6400 MT/s
CPU 0 runs ../../traces/trace2.champsimtrace.xz
.xz
BTB has LRU replacement policy
ITLB has LRU replacement policy
DTLB has LRU replacement policy
STLB has LRU replacement policy
L1I has LRU replacement policy
L1D has LRU replacement policy
CPU 0 Region based L2 offset prefetcher
L2C has LRU replacement policy
LLC has LRU replacement policy
Heartbeat CPU 0 instructions: 10000000 cycles: 2545738 heartbeat IPC: 3.92813 cumulative IPC: 3.92813 (Simulation time: 0 hr 0 min 12 sec) 
Heartbeat CPU 0 instructions: 20000007 cycles: 5089587 heartbeat IPC: 3.93105 cumulative IPC: 3.92959 (Simulation time: 0 hr 0 min 23 sec) 

Warmup complete CPU 0 instructions: 25000002 cycles: 6360512 (Simulation time: 0 hr 0 min 29 sec) 

Heartbeat CPU 0 instructions: 30000000 cycles: 16805254 heartbeat IPC: 0.853557 cumulative IPC: 0.47871 (Simulation time: 0 hr 0 min 58 sec) 
Heartbeat CPU 0 instructions: 40000005 cycles: 37622051 heartbeat IPC: 0.480382 cumulative IPC: 0.479823 (Simulation time: 0 hr 1 min 55 sec) 
Heartbeat CPU 0 instructions: 50000004 cycles: 58970532 heartbeat IPC: 0.468417 cumulative IPC: 0.475195 (Simulation time: 0 hr 2 min 54 sec) 
Finished CPU 0 instructions: 25000002 cycles: 52610020 cumulative IPC: 0.475195 (Simulation time: 0 hr 2 min 54 sec) 

ChampSim completed all CPUs

Region of Interest Statistics

CPU 0 cumulative IPC: 0.475195 instructions: 25000002 cycles: 52610020
ITLB TOTAL     ACCESS:    3543832  HIT:    3543832  MISS:          0  HIT %:        100  MISS %:          0   MPKI: 0
ITLB LOAD TRANSLATION ACCESS:    3543832  HIT:    3543832  MISS:          0  HIT %:        100  MISS %:          0   MPKI: 0
ITLB PREFETCH  REQUESTED:          0  ISSUED:          0  USEFUL:          0  USELESS:          0
ITLB USEFUL LOAD PREFETCHES:          0 PREFETCH ISSUED TO LOWER LEVEL:          0  ACCURACY: -nan
ITLB TIMELY PREFETCHES:          0 LATE PREFETCHES: 0 DROPPED PREFETCHES: 0
ITLB PREFETCHES SAME FILL-ORIGIN LEVEL: 0 DIFFERENT FILL-ORIGIN LEVEL: 0
ITLB AVERAGE MISS LATENCY: -nan cycles
ITLB RQ	ACCESS:    4490058	FORWARD:          0	MERGED:     946227	TO_CACHE:    3543831

DTLB TOTAL     ACCESS:    3582359  HIT:    3548311  MISS:      34048  HIT %:    99.0496  MISS %:   0.950435   MPKI: 1.36192
DTLB LOAD TRANSLATION ACCESS:    3582359  HIT:    3548311  MISS:      34048  HIT %:    99.0496  MISS %:   0.950435   MPKI: 1.36192
DTLB PREFETCH  REQUESTED:          0  ISSUED:          0  USEFUL:          0  USELESS:          0
DTLB USEFUL LOAD PREFETCHES:          0 PREFETCH ISSUED TO LOWER LEVEL:          0  ACCURACY: -nan
DTLB TIMELY PREFETCHES:          0 LATE PREFETCHES: 0 DROPPED PREFETCHES: 0
DTLB PREFETCHES SAME FILL-ORIGIN LEVEL: 0 DIFFERENT FILL-ORIGIN LEVEL: 0
DTLB AVERAGE MISS LATENCY: 115.944 cycles
DTLB RQ	ACCESS:    5681765	FORWARD:          0	MERGED:    2082963	TO_CACHE:    3598802

STLB TOTAL     ACCESS:      34048  HIT:      15572  MISS:      18476  HIT %:    45.7354  MISS %:    54.2646   MPKI: 0.73904
STLB LOAD TRANSLATION ACCESS:      34048  HIT:      15572  MISS:      18476  HIT %:    45.7354  MISS %:    54.2646   MPKI: 0.73904
STLB PREFETCH  REQUESTED:          0  ISSUED:          0  USEFUL:          0  USELESS:          0
STLB USEFUL LOAD PREFETCHES:          0 PREFETCH ISSUED TO LOWER LEVEL:          0  ACCURACY: -nan
STLB TIMELY PREFETCHES:          0 LATE PREFETCHES: 0 DROPPED PREFETCHES: 0
STLB PREFETCHES SAME FILL-ORIGIN LEVEL: 0 DIFFERENT FILL-ORIGIN LEVEL: 0
STLB AVERAGE MISS LATENCY: 196.091 cycles
STLB RQ	ACCESS:      34048	FORWARD:          0	MERGED:          0	TO_CACHE:      34048

STLB Hit, L1D data hit: 0
STLB Hit, L2C data hit: 0
STLB Hit, LLC data hit: 0
STLB Hit, LLC data miss: 0
STLB STLB hints to L2: 0
L1D TOTAL     ACCESS:    5571763  HIT:    3621214  MISS:    1950549  HIT %:    64.9922  MISS %:    35.0078   MPKI: 78.022
L1D LOAD      ACCESS:    1188193  HIT:     892646  MISS:     295547  HIT %:    75.1263  MISS %:    24.8737   MPKI: 11.8219
L1D RFO       ACCESS:    4383570  HIT:    2728568  MISS:    1655002  HIT %:    62.2453  MISS %:    37.7547   MPKI: 66.2001
L1D PREFETCH  REQUESTED:          0  ISSUED:          0  USEFUL:          0  USELESS:          0
L1D USEFUL LOAD PREFETCHES:          0 PREFETCH ISSUED TO LOWER LEVEL:          0  ACCURACY: -nan
L1D TIMELY PREFETCHES:          0 LATE PREFETCHES: 0 DROPPED PREFETCHES: 0
L1D PREFETCHES SAME FILL-ORIGIN LEVEL: 0 DIFFERENT FILL-ORIGIN LEVEL: 0
L1D AVERAGE MISS LATENCY: 345.102 cycles
L1D RQ	ACCESS:    4255501	FORWARD:          0	MERGED:    2758855	TO_CACHE:    1275909
L1D WQ	ACCESS:    4596609	FORWARD:     220737	MERGED:     190753	TO_CACHE:    4405856

L1D UNIQUE REGIONS ACCESSED: 0
L1D REGIONS CONFLICTS: 0
L1D Cross Page Prefetch Requests: 0
L1D Same Page Prefetch Requests: 0
L1D ROI Sum of L1D PQ occupancy: 0
L1D PREFETCHES PUSHED FROM L2C: 0
L1I TOTAL     ACCESS:    4490058  HIT:    4490058  MISS:          0  HIT %:        100  MISS %:          0   MPKI: 0
L1I LOAD      ACCESS:    4490058  HIT:    4490058  MISS:          0  HIT %:        100  MISS %:          0   MPKI: 0
L1I PREFETCH  REQUESTED:          0  ISSUED:          0  USEFUL:          0  USELESS:          0
L1I USEFUL LOAD PREFETCHES:          0 PREFETCH ISSUED TO LOWER LEVEL:          0  ACCURACY: -nan
L1I TIMELY PREFETCHES:          0 LATE PREFETCHES: 0 DROPPED PREFETCHES: 0
L1I PREFETCHES SAME FILL-ORIGIN LEVEL: 0 DIFFERENT FILL-ORIGIN LEVEL: 0
L1I AVERAGE MISS LATENCY: -nan cycles
L1I RQ	ACCESS:    6625147	FORWARD:          0	MERGED:    2135089	TO_CACHE:    4490058

BTB TOTAL     ACCESS:     446811  HIT:     446805  MISS:          6  HIT %:    99.9987  MISS %: 0.00134285   MPKI: 0.00024
BTB BRANCH_DIRECT_JUMP	ACCESS:      72121  HIT:      72120  MISS:          1
BTB BRANCH_INDIRECT	ACCESS:          0  HIT:          0  MISS:          0
BTB BRANCH_CONDITIONAL	ACCESS:     374690  HIT:     374685  MISS:          5
BTB BRANCH_DIRECT_CALL	ACCESS:          0  HIT:          0  MISS:          0
BTB BRANCH_INDIRECT_CALL	ACCESS:          0  HIT:          0  MISS:          0
BTB BRANCH_RETURN	ACCESS:          0  HIT:          0  MISS:          0
BTB BRANCH_OTHER ACCESS:          0  HIT:          0  MISS:          0

L2C TOTAL     ACCESS:    3712228  HIT:    2519732  MISS:    1192496  HIT %:    67.8765  MISS %:    32.1235   MPKI: 47.6998
L2C LOAD      ACCESS:     295547  HIT:      17697  MISS:     277850  HIT %:    5.98788  MISS %:    94.0121   MPKI: 11.114
L2C DATA LOAD MPKI: 11.114
L2C INSTRUCTION LOAD MPKI: 0
L2C RFO       ACCESS:    1655001  HIT:     760440  MISS:     894561  HIT %:     45.948  MISS %:     54.052   MPKI: 35.7824
L2C PREFETCH  ACCESS:      88201  HIT:      70499  MISS:      17702  HIT %:    79.9299  MISS %:    20.0701   MPKI: 0.70808
AGUS PREFETCH L1 MISS: 0
L2C DATA PREFETCH MPKI: 0.70808
L2C INSTRUCTION PREFETCH MPKI: 0
L2C WRITEBACK ACCESS:    1655001  HIT:    1654953  MISS:         48  HIT %:    99.9971  MISS %:  0.0029003   MPKI: 0.00192
L2C LOAD TRANSLATION ACCESS:      18478  HIT:      16143  MISS:       2335  HIT %:    87.3634  MISS %:    12.6366   MPKI: 0.0934
L2C PREFETCH  REQUESTED:     286969  ISSUED:     286969  USEFUL:      17696  USELESS:          6
L2C USEFUL LOAD PREFETCHES:      17696 PREFETCH ISSUED TO LOWER LEVEL:      83938  ACCURACY: 21.0822
L2C TIMELY PREFETCHES:      17696 LATE PREFETCHES: 50062 DROPPED PREFETCHES: 0
L2C PREFETCHES SAME FILL-ORIGIN LEVEL: 67764 DIFFERENT FILL-ORIGIN LEVEL: 16174
L2C AVERAGE MISS LATENCY: 546.051 cycles
L2C RQ	ACCESS:    1969032	FORWARD:          0	MERGED:          0	TO_CACHE:    1969031
L2C WQ	ACCESS:    1655001	FORWARD:          1	MERGED:          0	TO_CACHE:    1655001
L2C PQ	ACCESS:     286969	FORWARD:          0	MERGED:        945	TO_CACHE:     286024

L2C Instructions Evicting Data 0
L2C Translations Evicting Data 2311
L2C Data Evicting Data 1187802
L2C Instructions Evicting Instructions 0
L2C Translations Evicting Instructions 0
L2C Data Evicting Instructions 0
L2C Instructions Evicting Translations 0
L2C Translations Evicting Translations 24
L2C Data Evicting Translations 2311
L2C Dense regions hint from L2: 0
PSCL5 TOTAL     ACCESS:      18476  HIT:      18476  MISS:          0  HIT %:        100  MISS %:          0   MPKI: 0
PSCL5 LOAD TRANSLATION ACCESS:      18476  HIT:      18476  MISS:          0  HIT %:        100  MISS %:          0   MPKI: 0
PSCL5 PREFETCH  REQUESTED:          0  ISSUED:          0  USEFUL:          0  USELESS:          0
PSCL5 USEFUL LOAD PREFETCHES:          0 PREFETCH ISSUED TO LOWER LEVEL:          0  ACCURACY: -nan
PSCL5 TIMELY PREFETCHES:          0 LATE PREFETCHES: 0 DROPPED PREFETCHES: 0
PSCL5 PREFETCHES SAME FILL-ORIGIN LEVEL: 0 DIFFERENT FILL-ORIGIN LEVEL: 0

PSCL4 TOTAL     ACCESS:      18476  HIT:      18476  MISS:          0  HIT %:        100  MISS %:          0   MPKI: 0
PSCL4 LOAD TRANSLATION ACCESS:      18476  HIT:      18476  MISS:          0  HIT %:        100  MISS %:          0   MPKI: 0
PSCL4 PREFETCH  REQUESTED:          0  ISSUED:          0  USEFUL:          0  USELESS:          0
PSCL4 USEFUL LOAD PREFETCHES:          0 PREFETCH ISSUED TO LOWER LEVEL:          0  ACCURACY: -nan
PSCL4 TIMELY PREFETCHES:          0 LATE PREFETCHES: 0 DROPPED PREFETCHES: 0
PSCL4 PREFETCHES SAME FILL-ORIGIN LEVEL: 0 DIFFERENT FILL-ORIGIN LEVEL: 0

PSCL3 TOTAL     ACCESS:      18476  HIT:      18476  MISS:          0  HIT %:        100  MISS %:          0   MPKI: 0
PSCL3 LOAD TRANSLATION ACCESS:      18476  HIT:      18476  MISS:          0  HIT %:        100  MISS %:          0   MPKI: 0
PSCL3 PREFETCH  REQUESTED:          0  ISSUED:          0  USEFUL:          0  USELESS:          0
PSCL3 USEFUL LOAD PREFETCHES:          0 PREFETCH ISSUED TO LOWER LEVEL:          0  ACCURACY: -nan
PSCL3 TIMELY PREFETCHES:          0 LATE PREFETCHES: 0 DROPPED PREFETCHES: 0
PSCL3 PREFETCHES SAME FILL-ORIGIN LEVEL: 0 DIFFERENT FILL-ORIGIN LEVEL: 0

PSCL2 TOTAL     ACCESS:      18476  HIT:      18456  MISS:         20  HIT %:    99.8918  MISS %:   0.108249   MPKI: 0.0008
PSCL2 LOAD TRANSLATION ACCESS:      18476  HIT:      18456  MISS:         20  HIT %:    99.8918  MISS %:   0.108249   MPKI: 0.0008
PSCL2 PREFETCH  REQUESTED:          0  ISSUED:          0  USEFUL:          0  USELESS:          0
PSCL2 USEFUL LOAD PREFETCHES:          0 PREFETCH ISSUED TO LOWER LEVEL:          0  ACCURACY: -nan
PSCL2 TIMELY PREFETCHES:          0 LATE PREFETCHES: 0 DROPPED PREFETCHES: 0
PSCL2 PREFETCHES SAME FILL-ORIGIN LEVEL: 0 DIFFERENT FILL-ORIGIN LEVEL: 0

LLC TOTAL     ACCESS:    2091219  HIT:     906718  MISS:    1184501  HIT %:    43.3583  MISS %:    56.6417   MPKI: 47.38
LLC LOAD      ACCESS:     227788  HIT:       3871  MISS:     223917  HIT %:    1.69939  MISS %:    98.3006   MPKI: 8.95668
LLC RFO       ACCESS:     894559  HIT:       7981  MISS:     886578  HIT %:   0.892171  MISS %:    99.1078   MPKI: 35.4631
LLC PREFETCH  ACCESS:      71684  HIT:         52  MISS:      71632  HIT %:  0.0725406  MISS %:    99.9275   MPKI: 2.86528
AGUS PREFETCH L1 MISS: 0
LLC WRITEBACK ACCESS:     894853  HIT:     894814  MISS:         39  HIT %:    99.9956  MISS %: 0.00435826   MPKI: 0.00156
LLC LOAD TRANSLATION ACCESS:       2335  HIT:          0  MISS:       2335  HIT %:          0  MISS %:        100   MPKI: 0.0934
LLC PREFETCH  REQUESTED:          0  ISSUED:          0  USEFUL:       3870  USELESS:      68047
LLC USEFUL LOAD PREFETCHES:       3870 PREFETCH ISSUED TO LOWER LEVEL:      83838  ACCURACY: 4.61605
LLC TIMELY PREFETCHES:       3870 LATE PREFETCHES: 12206 DROPPED PREFETCHES: 0
LLC PREFETCHES SAME FILL-ORIGIN LEVEL: 16163 DIFFERENT FILL-ORIGIN LEVEL: 0
LLC AVERAGE MISS LATENCY: 526.682 cycles
LLC RQ	ACCESS:    1124689	FORWARD:          0	MERGED:          0	TO_CACHE:    1124687
LLC WQ	ACCESS:     894853	FORWARD:          2	MERGED:          0	TO_CACHE:     894853
LLC PQ	ACCESS:      83938	FORWARD:          0	MERGED:          0	TO_CACHE:      83938

LLC Dense regions hint to LLC: 0

RAW hits: 2256821
Reg RAW dependents: 19465350
Loads Generated: 6512322
Loads sent to L1D: 4255501
Stores Generated: 4596601
Stores sent to L1D: 4596609
Major fault: 0 Minor fault: 21636
Allocated PAGES: 21636
Average branch resolution latency (in cycles): 62.3011
CPU 0 L2C Region based offset prefetcher final stats

DRAM Statistics
 CHANNEL 0
 RQ ROW_BUFFER_HIT:      85793  ROW_BUFFER_MISS:    1098671
 DBUS_CONGESTED:          0
 WQ ROW_BUFFER_HIT:     187436  ROW_BUFFER_MISS:     698774  FULL:          0

 AVG_CONGESTED_CYCLE: -
 All warmup complete: 2
Channel 0 Bank busy for read cycles: 0
Channel 0 Bank busy for write cycles: 0
Channel 0
Rank 0
0banks busy for read cycles: 16547
0banks busy for write cycles: 0
1banks busy for read cycles: 1556507
1banks busy for write cycles: 91428
2banks busy for read cycles: 742405
2banks busy for write cycles: 91428
3banks busy for read cycles: 855954
3banks busy for write cycles: 91428
4banks busy for read cycles: 4646671
4banks busy for write cycles: 91428
5banks busy for read cycles: 6488936
5banks busy for write cycles: 91440
6banks busy for read cycles: 6502878
6banks busy for write cycles: 91506
7banks busy for read cycles: 6989294
7banks busy for write cycles: 979560
8banks busy for read cycles: 5758968
8banks busy for write cycles: 17523643

CPU 0 Branch Prediction Accuracy: 97.0469% MPKI: 0.5278 Average ROB Occupancy at Mispredict: 275.085
Branch types
NOT_BRANCH: 24553131 98.2125%
BRANCH_DIRECT_JUMP: 72121 0.288484%
BRANCH_INDIRECT: 0 0%
BRANCH_CONDITIONAL: 374692 1.49877%
BRANCH_DIRECT_CALL: 0 0%
BRANCH_INDIRECT_CALL: 0 0%
BRANCH_RETURN: 0 0%
BRANCH_OTHER: 0 0%

DRAM PAGES: 1048576
Allocated PAGES: 21636
