
*** ChampSim Multicore Out-of-Order Simulator ***

Warmup Instructions: 25000000
Simulation Instructions: 25000000
Number of CPUs: 1
LLC sets: 2048
LLC ways: 16
Off-chip DRAM Size: 4096 MB Channels: 1 Width: 64-bit Data Rate: 6400 MT/s
CPU 0 runs ../../traces/trace1.champsimtrace.xz
.xz
BTB has LRU replacement policy
ITLB has LRU replacement policy
DTLB has LRU replacement policy
STLB has LRU replacement policy
L1I has LRU replacement policy
L1D has LRU replacement policy
CPU 0 Region based L2 offset prefetcher
L2C has LRU replacement policy
LLC has LRU replacement policy
Heartbeat CPU 0 instructions: 10000000 cycles: 2548630 heartbeat IPC: 3.92368 cumulative IPC: 3.92368 (Simulation time: 0 hr 0 min 11 sec) 
Heartbeat CPU 0 instructions: 20000001 cycles: 5092632 heartbeat IPC: 3.93081 cumulative IPC: 3.92724 (Simulation time: 0 hr 0 min 23 sec) 

Warmup complete CPU 0 instructions: 25000008 cycles: 6361179 (Simulation time: 0 hr 0 min 29 sec) 

Heartbeat CPU 0 instructions: 30000007 cycles: 15406511 heartbeat IPC: 0.969568 cumulative IPC: 0.552771 (Simulation time: 0 hr 0 min 55 sec) 
Heartbeat CPU 0 instructions: 40000002 cycles: 33092277 heartbeat IPC: 0.565426 cumulative IPC: 0.561144 (Simulation time: 0 hr 1 min 47 sec) 
Heartbeat CPU 0 instructions: 50000000 cycles: 50130290 heartbeat IPC: 0.586923 cumulative IPC: 0.571179 (Simulation time: 0 hr 2 min 37 sec) 
Finished CPU 0 instructions: 25000004 cycles: 43769130 cumulative IPC: 0.571179 (Simulation time: 0 hr 2 min 37 sec) 

ChampSim completed all CPUs

Region of Interest Statistics

CPU 0 cumulative IPC: 0.571179 instructions: 25000004 cycles: 43769130
ITLB TOTAL     ACCESS:    3458074  HIT:    3458074  MISS:          0  HIT %:        100  MISS %:          0   MPKI: 0
ITLB LOAD TRANSLATION ACCESS:    3458074  HIT:    3458074  MISS:          0  HIT %:        100  MISS %:          0   MPKI: 0
ITLB PREFETCH  REQUESTED:          0  ISSUED:          0  USEFUL:          0  USELESS:          0
ITLB USEFUL LOAD PREFETCHES:          0 PREFETCH ISSUED TO LOWER LEVEL:          0  ACCURACY: -nan
ITLB TIMELY PREFETCHES:          0 LATE PREFETCHES: 0 DROPPED PREFETCHES: 0
ITLB PREFETCHES SAME FILL-ORIGIN LEVEL: 0 DIFFERENT FILL-ORIGIN LEVEL: 0
ITLB AVERAGE MISS LATENCY: -nan cycles
ITLB RQ	ACCESS:    4425326	FORWARD:          0	MERGED:     967252	TO_CACHE:    3458074

DTLB TOTAL     ACCESS:    3431599  HIT:    3402774  MISS:      28825  HIT %:      99.16  MISS %:   0.839987   MPKI: 1.153
DTLB LOAD TRANSLATION ACCESS:    3431599  HIT:    3402774  MISS:      28825  HIT %:      99.16  MISS %:   0.839987   MPKI: 1.153
DTLB PREFETCH  REQUESTED:          0  ISSUED:          0  USEFUL:          0  USELESS:          0
DTLB USEFUL LOAD PREFETCHES:          0 PREFETCH ISSUED TO LOWER LEVEL:          0  ACCURACY: -nan
DTLB TIMELY PREFETCHES:          0 LATE PREFETCHES: 0 DROPPED PREFETCHES: 0
DTLB PREFETCHES SAME FILL-ORIGIN LEVEL: 0 DIFFERENT FILL-ORIGIN LEVEL: 0
DTLB AVERAGE MISS LATENCY: 119.099 cycles
DTLB RQ	ACCESS:    5529197	FORWARD:          0	MERGED:    2085576	TO_CACHE:    3443621

STLB TOTAL     ACCESS:      28825  HIT:      13183  MISS:      15642  HIT %:    45.7346  MISS %:    54.2654   MPKI: 0.62568
STLB LOAD TRANSLATION ACCESS:      28825  HIT:      13183  MISS:      15642  HIT %:    45.7346  MISS %:    54.2654   MPKI: 0.62568
STLB PREFETCH  REQUESTED:          0  ISSUED:          0  USEFUL:          0  USELESS:          0
STLB USEFUL LOAD PREFETCHES:          0 PREFETCH ISSUED TO LOWER LEVEL:          0  ACCURACY: -nan
STLB TIMELY PREFETCHES:          0 LATE PREFETCHES: 0 DROPPED PREFETCHES: 0
STLB PREFETCHES SAME FILL-ORIGIN LEVEL: 0 DIFFERENT FILL-ORIGIN LEVEL: 0
STLB AVERAGE MISS LATENCY: 199.507 cycles
STLB RQ	ACCESS:      28825	FORWARD:          0	MERGED:          0	TO_CACHE:      28825

STLB Hit, L1D data hit: 0
STLB Hit, L2C data hit: 0
STLB Hit, LLC data hit: 0
STLB Hit, LLC data miss: 0
STLB STLB hints to L2: 0
L1D TOTAL     ACCESS:    5447027  HIT:    3795772  MISS:    1651255  HIT %:    69.6852  MISS %:    30.3148   MPKI: 66.0502
L1D LOAD      ACCESS:    1339828  HIT:    1089624  MISS:     250204  HIT %:    81.3257  MISS %:    18.6743   MPKI: 10.0082
L1D RFO       ACCESS:    4107199  HIT:    2706148  MISS:    1401051  HIT %:    65.8879  MISS %:    34.1121   MPKI: 56.042
L1D PREFETCH  REQUESTED:          0  ISSUED:          0  USEFUL:          0  USELESS:          0
L1D USEFUL LOAD PREFETCHES:          0 PREFETCH ISSUED TO LOWER LEVEL:          0  ACCURACY: -nan
L1D TIMELY PREFETCHES:          0 LATE PREFETCHES: 0 DROPPED PREFETCHES: 0
L1D PREFETCHES SAME FILL-ORIGIN LEVEL: 0 DIFFERENT FILL-ORIGIN LEVEL: 0
L1D AVERAGE MISS LATENCY: 339.568 cycles
L1D RQ	ACCESS:    4316246	FORWARD:          0	MERGED:    2602051	TO_CACHE:    1402582
L1D WQ	ACCESS:    4349460	FORWARD:     311613	MERGED:     222845	TO_CACHE:    4126615

L1D UNIQUE REGIONS ACCESSED: 0
L1D REGIONS CONFLICTS: 0
L1D Cross Page Prefetch Requests: 0
L1D Same Page Prefetch Requests: 0
L1D ROI Sum of L1D PQ occupancy: 0
L1D PREFETCHES PUSHED FROM L2C: 0
L1I TOTAL     ACCESS:    4425325  HIT:    4425325  MISS:          0  HIT %:        100  MISS %:          0   MPKI: 0
L1I LOAD      ACCESS:    4425325  HIT:    4425325  MISS:          0  HIT %:        100  MISS %:          0   MPKI: 0
L1I PREFETCH  REQUESTED:          0  ISSUED:          0  USEFUL:          0  USELESS:          0
L1I USEFUL LOAD PREFETCHES:          0 PREFETCH ISSUED TO LOWER LEVEL:          0  ACCURACY: -nan
L1I TIMELY PREFETCHES:          0 LATE PREFETCHES: 0 DROPPED PREFETCHES: 0
L1I PREFETCHES SAME FILL-ORIGIN LEVEL: 0 DIFFERENT FILL-ORIGIN LEVEL: 0
L1I AVERAGE MISS LATENCY: -nan cycles
L1I RQ	ACCESS:    6445713	FORWARD:          0	MERGED:    2020387	TO_CACHE:    4425326

BTB TOTAL     ACCESS:     396212  HIT:     396206  MISS:          6  HIT %:    99.9985  MISS %: 0.00151434   MPKI: 0.00024
BTB BRANCH_DIRECT_JUMP	ACCESS:      52070  HIT:      52069  MISS:          1
BTB BRANCH_INDIRECT	ACCESS:          0  HIT:          0  MISS:          0
BTB BRANCH_CONDITIONAL	ACCESS:     344142  HIT:     344137  MISS:          5
BTB BRANCH_DIRECT_CALL	ACCESS:          0  HIT:          0  MISS:          0
BTB BRANCH_INDIRECT_CALL	ACCESS:          0  HIT:          0  MISS:          0
BTB BRANCH_RETURN	ACCESS:          0  HIT:          0  MISS:          0
BTB BRANCH_OTHER ACCESS:          0  HIT:          0  MISS:          0

L2C TOTAL     ACCESS:    3326444  HIT:    2317741  MISS:    1008703  HIT %:    69.6762  MISS %:    30.3238   MPKI: 40.3481
L2C LOAD      ACCESS:     250204  HIT:      73183  MISS:     177021  HIT %:    29.2493  MISS %:    70.7507   MPKI: 7.08084
L2C DATA LOAD MPKI: 7.08084
L2C INSTRUCTION LOAD MPKI: 0
L2C RFO       ACCESS:    1401051  HIT:     644556  MISS:     756495  HIT %:    46.0052  MISS %:    53.9948   MPKI: 30.2598
L2C PREFETCH  ACCESS:     258492  HIT:     185312  MISS:      73180  HIT %:    71.6896  MISS %:    28.3104   MPKI: 2.9272
AGUS PREFETCH L1 MISS: 0
L2C DATA PREFETCH MPKI: 2.9272
L2C INSTRUCTION PREFETCH MPKI: 0
L2C WRITEBACK ACCESS:    1401053  HIT:    1401023  MISS:         30  HIT %:    99.9979  MISS %: 0.00214125   MPKI: 0.0012
L2C LOAD TRANSLATION ACCESS:      15644  HIT:      13667  MISS:       1977  HIT %:    87.3626  MISS %:    12.6374   MPKI: 0.07908
L2C PREFETCH  REQUESTED:     572922  ISSUED:     572660  USEFUL:      73175  USELESS:          9
L2C USEFUL LOAD PREFETCHES:      73175 PREFETCH ISSUED TO LOWER LEVEL:     159003  ACCURACY: 46.0211
L2C TIMELY PREFETCHES:      73175 LATE PREFETCHES: 40778 DROPPED PREFETCHES: 0
L2C PREFETCHES SAME FILL-ORIGIN LEVEL: 113958 DIFFERENT FILL-ORIGIN LEVEL: 45045
L2C AVERAGE MISS LATENCY: 564.822 cycles
L2C RQ	ACCESS:    1666906	FORWARD:          0	MERGED:          0	TO_CACHE:    1666906
L2C WQ	ACCESS:    1401053	FORWARD:          0	MERGED:          0	TO_CACHE:    1401053
L2C PQ	ACCESS:     572660	FORWARD:          0	MERGED:      70836	TO_CACHE:     501824

L2C Instructions Evicting Data 0
L2C Translations Evicting Data 1973
L2C Data Evicting Data 1004715
L2C Instructions Evicting Instructions 0
L2C Translations Evicting Instructions 0
L2C Data Evicting Instructions 0
L2C Instructions Evicting Translations 0
L2C Translations Evicting Translations 4
L2C Data Evicting Translations 1981
L2C Dense regions hint from L2: 0
PSCL5 TOTAL     ACCESS:      15642  HIT:      15642  MISS:          0  HIT %:        100  MISS %:          0   MPKI: 0
PSCL5 LOAD TRANSLATION ACCESS:      15642  HIT:      15642  MISS:          0  HIT %:        100  MISS %:          0   MPKI: 0
PSCL5 PREFETCH  REQUESTED:          0  ISSUED:          0  USEFUL:          0  USELESS:          0
PSCL5 USEFUL LOAD PREFETCHES:          0 PREFETCH ISSUED TO LOWER LEVEL:          0  ACCURACY: -nan
PSCL5 TIMELY PREFETCHES:          0 LATE PREFETCHES: 0 DROPPED PREFETCHES: 0
PSCL5 PREFETCHES SAME FILL-ORIGIN LEVEL: 0 DIFFERENT FILL-ORIGIN LEVEL: 0

PSCL4 TOTAL     ACCESS:      15642  HIT:      15642  MISS:          0  HIT %:        100  MISS %:          0   MPKI: 0
PSCL4 LOAD TRANSLATION ACCESS:      15642  HIT:      15642  MISS:          0  HIT %:        100  MISS %:          0   MPKI: 0
PSCL4 PREFETCH  REQUESTED:          0  ISSUED:          0  USEFUL:          0  USELESS:          0
PSCL4 USEFUL LOAD PREFETCHES:          0 PREFETCH ISSUED TO LOWER LEVEL:          0  ACCURACY: -nan
PSCL4 TIMELY PREFETCHES:          0 LATE PREFETCHES: 0 DROPPED PREFETCHES: 0
PSCL4 PREFETCHES SAME FILL-ORIGIN LEVEL: 0 DIFFERENT FILL-ORIGIN LEVEL: 0

PSCL3 TOTAL     ACCESS:      15642  HIT:      15642  MISS:          0  HIT %:        100  MISS %:          0   MPKI: 0
PSCL3 LOAD TRANSLATION ACCESS:      15642  HIT:      15642  MISS:          0  HIT %:        100  MISS %:          0   MPKI: 0
PSCL3 PREFETCH  REQUESTED:          0  ISSUED:          0  USEFUL:          0  USELESS:          0
PSCL3 USEFUL LOAD PREFETCHES:          0 PREFETCH ISSUED TO LOWER LEVEL:          0  ACCURACY: -nan
PSCL3 TIMELY PREFETCHES:          0 LATE PREFETCHES: 0 DROPPED PREFETCHES: 0
PSCL3 PREFETCHES SAME FILL-ORIGIN LEVEL: 0 DIFFERENT FILL-ORIGIN LEVEL: 0

PSCL2 TOTAL     ACCESS:      15642  HIT:      15625  MISS:         17  HIT %:    99.8913  MISS %:   0.108682   MPKI: 0.00068
PSCL2 LOAD TRANSLATION ACCESS:      15642  HIT:      15625  MISS:         17  HIT %:    99.8913  MISS %:   0.108682   MPKI: 0.00068
PSCL2 PREFETCH  REQUESTED:          0  ISSUED:          0  USEFUL:          0  USELESS:          0
PSCL2 USEFUL LOAD PREFETCHES:          0 PREFETCH ISSUED TO LOWER LEVEL:          0  ACCURACY: -nan
PSCL2 TIMELY PREFETCHES:          0 LATE PREFETCHES: 0 DROPPED PREFETCHES: 0
PSCL2 PREFETCHES SAME FILL-ORIGIN LEVEL: 0 DIFFERENT FILL-ORIGIN LEVEL: 0

LLC TOTAL     ACCESS:    1787802  HIT:     785058  MISS:    1002744  HIT %:    43.9119  MISS %:    56.0881   MPKI: 40.1098
LLC LOAD      ACCESS:     136243  HIT:       5121  MISS:     131122  HIT %:    3.75873  MISS %:    96.2413   MPKI: 5.24488
LLC RFO       ACCESS:     756482  HIT:       5949  MISS:     750533  HIT %:   0.786403  MISS %:    99.2136   MPKI: 30.0213
LLC PREFETCH  ACCESS:     135574  HIT:      16492  MISS:     119082  HIT %:    12.1646  MISS %:    87.8354   MPKI: 4.76328
AGUS PREFETCH L1 MISS: 0
LLC WRITEBACK ACCESS:     757526  HIT:     757496  MISS:         30  HIT %:     99.996  MISS %: 0.00396026   MPKI: 0.0012
LLC LOAD TRANSLATION ACCESS:       1977  HIT:          0  MISS:       1977  HIT %:          0  MISS %:        100   MPKI: 0.07908
LLC PREFETCH  REQUESTED:          0  ISSUED:          0  USEFUL:       5121  USELESS:     112901
LLC USEFUL LOAD PREFETCHES:       5121 PREFETCH ISSUED TO LOWER LEVEL:     127694  ACCURACY: 4.01037
LLC TIMELY PREFETCHES:       5121 LATE PREFETCHES: 8612 DROPPED PREFETCHES: 0
LLC PREFETCHES SAME FILL-ORIGIN LEVEL: 34413 DIFFERENT FILL-ORIGIN LEVEL: 0
LLC AVERAGE MISS LATENCY: 558.427 cycles
LLC RQ	ACCESS:     894722	FORWARD:          0	MERGED:          0	TO_CACHE:     894709
LLC WQ	ACCESS:     757526	FORWARD:         13	MERGED:          0	TO_CACHE:     757526
LLC PQ	ACCESS:     159003	FORWARD:          0	MERGED:       1231	TO_CACHE:     157772

LLC Dense regions hint to LLC: 0

RAW hits: 2005409
Reg RAW dependents: 19502140
Loads Generated: 6321678
Loads sent to L1D: 4316246
Stores Generated: 4349455
Stores sent to L1D: 4349460
Major fault: 0 Minor fault: 19681
Allocated PAGES: 19681
Average branch resolution latency (in cycles): 70.389
CPU 0 L2C Region based offset prefetcher final stats

DRAM Statistics
 CHANNEL 0
 RQ ROW_BUFFER_HIT:      76329  ROW_BUFFER_MISS:     926385
 DBUS_CONGESTED:          0
 WQ ROW_BUFFER_HIT:     163043  ROW_BUFFER_MISS:     588304  FULL:          0

 AVG_CONGESTED_CYCLE: -
 All warmup complete: 2
Channel 0 Bank busy for read cycles: 0
Channel 0 Bank busy for write cycles: 0
Channel 0
Rank 0
0banks busy for read cycles: 13029
0banks busy for write cycles: 0
1banks busy for read cycles: 1276149
1banks busy for write cycles: 76802
2banks busy for read cycles: 534437
2banks busy for write cycles: 76802
3banks busy for read cycles: 677274
3banks busy for write cycles: 76802
4banks busy for read cycles: 3667566
4banks busy for write cycles: 76802
5banks busy for read cycles: 4716671
5banks busy for write cycles: 76802
6banks busy for read cycles: 4887690
6banks busy for write cycles: 76875
7banks busy for read cycles: 5929426
7banks busy for write cycles: 829526
8banks busy for read cycles: 5988955
8banks busy for write cycles: 14787523

CPU 0 Branch Prediction Accuracy: 97.8416% MPKI: 0.34208 Average ROB Occupancy at Mispredict: 251.002
Branch types
NOT_BRANCH: 24604096 98.4164%
BRANCH_DIRECT_JUMP: 52070 0.20828%
BRANCH_INDIRECT: 0 0%
BRANCH_CONDITIONAL: 344150 1.3766%
BRANCH_DIRECT_CALL: 0 0%
BRANCH_INDIRECT_CALL: 0 0%
BRANCH_RETURN: 0 0%
BRANCH_OTHER: 0 0%

DRAM PAGES: 1048576
Allocated PAGES: 19681
