
*** ChampSim Multicore Out-of-Order Simulator ***

Warmup Instructions: 25000000
Simulation Instructions: 25000000
Number of CPUs: 1
LLC sets: 2048
LLC ways: 16
Off-chip DRAM Size: 4096 MB Channels: 1 Width: 64-bit Data Rate: 6400 MT/s
CPU 0 runs ../../traces/trace1.champsimtrace.xz
.xz
BTB has LRU replacement policy
ITLB has LRU replacement policy
DTLB has LRU replacement policy
STLB has LRU replacement policy
L1I has LRU replacement policy
L1D has LRU replacement policy
CPU 0 Region based L2 offset prefetcher
L2C has LRU replacement policy
LLC has LRU replacement policy
Heartbeat CPU 0 instructions: 10000000 cycles: 2548529 heartbeat IPC: 3.92383 cumulative IPC: 3.92383 (Simulation time: 0 hr 0 min 11 sec) 
Heartbeat CPU 0 instructions: 20000001 cycles: 5092556 heartbeat IPC: 3.93078 cumulative IPC: 3.9273 (Simulation time: 0 hr 0 min 23 sec) 

Warmup complete CPU 0 instructions: 25000008 cycles: 6361153 (Simulation time: 0 hr 0 min 29 sec) 

Heartbeat CPU 0 instructions: 30000007 cycles: 15351341 heartbeat IPC: 0.974775 cumulative IPC: 0.556162 (Simulation time: 0 hr 0 min 56 sec) 
Heartbeat CPU 0 instructions: 40000002 cycles: 32952603 heartbeat IPC: 0.568141 cumulative IPC: 0.564091 (Simulation time: 0 hr 1 min 49 sec) 
Heartbeat CPU 0 instructions: 50000006 cycles: 49907986 heartbeat IPC: 0.589783 cumulative IPC: 0.574095 (Simulation time: 0 hr 2 min 37 sec) 
Finished CPU 0 instructions: 25000004 cycles: 43546849 cumulative IPC: 0.574094 (Simulation time: 0 hr 2 min 37 sec) 

ChampSim completed all CPUs

Region of Interest Statistics

CPU 0 cumulative IPC: 0.574094 instructions: 25000004 cycles: 43546849
ITLB TOTAL     ACCESS:    3457821  HIT:    3457821  MISS:          0  HIT %:        100  MISS %:          0   MPKI: 0
ITLB LOAD TRANSLATION ACCESS:    3457821  HIT:    3457821  MISS:          0  HIT %:        100  MISS %:          0   MPKI: 0
ITLB PREFETCH  REQUESTED:          0  ISSUED:          0  USEFUL:          0  USELESS:          0
ITLB USEFUL LOAD PREFETCHES:          0 PREFETCH ISSUED TO LOWER LEVEL:          0  ACCURACY: -nan
ITLB TIMELY PREFETCHES:          0 LATE PREFETCHES: 0 DROPPED PREFETCHES: 0
ITLB PREFETCHES SAME FILL-ORIGIN LEVEL: 0 DIFFERENT FILL-ORIGIN LEVEL: 0
ITLB AVERAGE MISS LATENCY: -nan cycles
ITLB RQ	ACCESS:    4425834	FORWARD:          0	MERGED:     968014	TO_CACHE:    3457820

DTLB TOTAL     ACCESS:    3428756  HIT:    3399931  MISS:      28825  HIT %:    99.1593  MISS %:   0.840684   MPKI: 1.153
DTLB LOAD TRANSLATION ACCESS:    3428756  HIT:    3399931  MISS:      28825  HIT %:    99.1593  MISS %:   0.840684   MPKI: 1.153
DTLB PREFETCH  REQUESTED:          0  ISSUED:          0  USEFUL:          0  USELESS:          0
DTLB USEFUL LOAD PREFETCHES:          0 PREFETCH ISSUED TO LOWER LEVEL:          0  ACCURACY: -nan
DTLB TIMELY PREFETCHES:          0 LATE PREFETCHES: 0 DROPPED PREFETCHES: 0
DTLB PREFETCHES SAME FILL-ORIGIN LEVEL: 0 DIFFERENT FILL-ORIGIN LEVEL: 0
DTLB AVERAGE MISS LATENCY: 120.522 cycles
DTLB RQ	ACCESS:    5511473	FORWARD:          0	MERGED:    2070749	TO_CACHE:    3440724

STLB TOTAL     ACCESS:      28825  HIT:      13183  MISS:      15642  HIT %:    45.7346  MISS %:    54.2654   MPKI: 0.62568
STLB LOAD TRANSLATION ACCESS:      28825  HIT:      13183  MISS:      15642  HIT %:    45.7346  MISS %:    54.2654   MPKI: 0.62568
STLB PREFETCH  REQUESTED:          0  ISSUED:          0  USEFUL:          0  USELESS:          0
STLB USEFUL LOAD PREFETCHES:          0 PREFETCH ISSUED TO LOWER LEVEL:          0  ACCURACY: -nan
STLB TIMELY PREFETCHES:          0 LATE PREFETCHES: 0 DROPPED PREFETCHES: 0
STLB PREFETCHES SAME FILL-ORIGIN LEVEL: 0 DIFFERENT FILL-ORIGIN LEVEL: 0
STLB AVERAGE MISS LATENCY: 202.105 cycles
STLB RQ	ACCESS:      28825	FORWARD:          0	MERGED:          0	TO_CACHE:      28825

STLB Hit, L1D data hit: 0
STLB Hit, L2C data hit: 0
STLB Hit, LLC data hit: 0
STLB Hit, LLC data miss: 0
STLB STLB hints to L2: 0
L1D TOTAL     ACCESS:    5430489  HIT:    3779263  MISS:    1651226  HIT %:    69.5934  MISS %:    30.4066   MPKI: 66.049
L1D LOAD      ACCESS:    1340595  HIT:    1090390  MISS:     250205  HIT %:    81.3363  MISS %:    18.6637   MPKI: 10.0082
L1D RFO       ACCESS:    4089894  HIT:    2688873  MISS:    1401021  HIT %:    65.7443  MISS %:    34.2557   MPKI: 56.0408
L1D PREFETCH  REQUESTED:          0  ISSUED:          0  USEFUL:          0  USELESS:          0
L1D USEFUL LOAD PREFETCHES:          0 PREFETCH ISSUED TO LOWER LEVEL:          0  ACCURACY: -nan
L1D TIMELY PREFETCHES:          0 LATE PREFETCHES: 0 DROPPED PREFETCHES: 0
L1D PREFETCHES SAME FILL-ORIGIN LEVEL: 0 DIFFERENT FILL-ORIGIN LEVEL: 0
L1D AVERAGE MISS LATENCY: 340.274 cycles
L1D RQ	ACCESS:    4344087	FORWARD:          0	MERGED:    2603419	TO_CACHE:    1400508
L1D WQ	ACCESS:    4349460	FORWARD:     340160	MERGED:     238495	TO_CACHE:    4110965

L1D UNIQUE REGIONS ACCESSED: 0
L1D REGIONS CONFLICTS: 0
L1D Cross Page Prefetch Requests: 0
L1D Same Page Prefetch Requests: 0
L1D ROI Sum of L1D PQ occupancy: 0
L1D PREFETCHES PUSHED FROM L2C: 0
L1I TOTAL     ACCESS:    4425835  HIT:    4425835  MISS:          0  HIT %:        100  MISS %:          0   MPKI: 0
L1I LOAD      ACCESS:    4425835  HIT:    4425835  MISS:          0  HIT %:        100  MISS %:          0   MPKI: 0
L1I PREFETCH  REQUESTED:          0  ISSUED:          0  USEFUL:          0  USELESS:          0
L1I USEFUL LOAD PREFETCHES:          0 PREFETCH ISSUED TO LOWER LEVEL:          0  ACCURACY: -nan
L1I TIMELY PREFETCHES:          0 LATE PREFETCHES: 0 DROPPED PREFETCHES: 0
L1I PREFETCHES SAME FILL-ORIGIN LEVEL: 0 DIFFERENT FILL-ORIGIN LEVEL: 0
L1I AVERAGE MISS LATENCY: -nan cycles
L1I RQ	ACCESS:    6444213	FORWARD:          0	MERGED:    2018379	TO_CACHE:    4425834

BTB TOTAL     ACCESS:     396212  HIT:     396206  MISS:          6  HIT %:    99.9985  MISS %: 0.00151434   MPKI: 0.00024
BTB BRANCH_DIRECT_JUMP	ACCESS:      52070  HIT:      52069  MISS:          1
BTB BRANCH_INDIRECT	ACCESS:          0  HIT:          0  MISS:          0
BTB BRANCH_CONDITIONAL	ACCESS:     344142  HIT:     344137  MISS:          5
BTB BRANCH_DIRECT_CALL	ACCESS:          0  HIT:          0  MISS:          0
BTB BRANCH_INDIRECT_CALL	ACCESS:          0  HIT:          0  MISS:          0
BTB BRANCH_RETURN	ACCESS:          0  HIT:          0  MISS:          0
BTB BRANCH_OTHER ACCESS:          0  HIT:          0  MISS:          0

L2C TOTAL     ACCESS:    3427014  HIT:    2418619  MISS:    1008395  HIT %:    70.5751  MISS %:    29.4249   MPKI: 40.3358
L2C LOAD      ACCESS:     250205  HIT:      84598  MISS:     165607  HIT %:    33.8115  MISS %:    66.1885   MPKI: 6.62428
L2C DATA LOAD MPKI: 6.62428
L2C INSTRUCTION LOAD MPKI: 0
L2C RFO       ACCESS:    1401021  HIT:     644841  MISS:     756180  HIT %:    46.0265  MISS %:    53.9735   MPKI: 30.2472
L2C PREFETCH  ACCESS:     359113  HIT:     274512  MISS:      84601  HIT %:    76.4417  MISS %:    23.5583   MPKI: 3.38404
AGUS PREFETCH L1 MISS: 0
L2C DATA PREFETCH MPKI: 3.38404
L2C INSTRUCTION PREFETCH MPKI: 0
L2C WRITEBACK ACCESS:    1401031  HIT:    1401001  MISS:         30  HIT %:    99.9979  MISS %: 0.00214128   MPKI: 0.0012
L2C LOAD TRANSLATION ACCESS:      15644  HIT:      13667  MISS:       1977  HIT %:    87.3626  MISS %:    12.6374   MPKI: 0.07908
L2C PREFETCH  REQUESTED:     764499  ISSUED:     763835  USEFUL:      84590  USELESS:         17
L2C USEFUL LOAD PREFETCHES:      84590 PREFETCH ISSUED TO LOWER LEVEL:     171406  ACCURACY: 49.3507
L2C TIMELY PREFETCHES:      84590 LATE PREFETCHES: 37368 DROPPED PREFETCHES: 0
L2C PREFETCHES SAME FILL-ORIGIN LEVEL: 121971 DIFFERENT FILL-ORIGIN LEVEL: 49435
L2C AVERAGE MISS LATENCY: 572.397 cycles
L2C RQ	ACCESS:    1666886	FORWARD:          0	MERGED:          0	TO_CACHE:    1666886
L2C WQ	ACCESS:    1401031	FORWARD:          0	MERGED:          0	TO_CACHE:    1401031
L2C PQ	ACCESS:     763835	FORWARD:          0	MERGED:     136404	TO_CACHE:     627431

L2C Instructions Evicting Data 0
L2C Translations Evicting Data 1975
L2C Data Evicting Data 1004406
L2C Instructions Evicting Instructions 0
L2C Translations Evicting Instructions 0
L2C Data Evicting Instructions 0
L2C Instructions Evicting Translations 0
L2C Translations Evicting Translations 2
L2C Data Evicting Translations 1982
L2C Dense regions hint from L2: 0
PSCL5 TOTAL     ACCESS:      15642  HIT:      15642  MISS:          0  HIT %:        100  MISS %:          0   MPKI: 0
PSCL5 LOAD TRANSLATION ACCESS:      15642  HIT:      15642  MISS:          0  HIT %:        100  MISS %:          0   MPKI: 0
PSCL5 PREFETCH  REQUESTED:          0  ISSUED:          0  USEFUL:          0  USELESS:          0
PSCL5 USEFUL LOAD PREFETCHES:          0 PREFETCH ISSUED TO LOWER LEVEL:          0  ACCURACY: -nan
PSCL5 TIMELY PREFETCHES:          0 LATE PREFETCHES: 0 DROPPED PREFETCHES: 0
PSCL5 PREFETCHES SAME FILL-ORIGIN LEVEL: 0 DIFFERENT FILL-ORIGIN LEVEL: 0

PSCL4 TOTAL     ACCESS:      15642  HIT:      15642  MISS:          0  HIT %:        100  MISS %:          0   MPKI: 0
PSCL4 LOAD TRANSLATION ACCESS:      15642  HIT:      15642  MISS:          0  HIT %:        100  MISS %:          0   MPKI: 0
PSCL4 PREFETCH  REQUESTED:          0  ISSUED:          0  USEFUL:          0  USELESS:          0
PSCL4 USEFUL LOAD PREFETCHES:          0 PREFETCH ISSUED TO LOWER LEVEL:          0  ACCURACY: -nan
PSCL4 TIMELY PREFETCHES:          0 LATE PREFETCHES: 0 DROPPED PREFETCHES: 0
PSCL4 PREFETCHES SAME FILL-ORIGIN LEVEL: 0 DIFFERENT FILL-ORIGIN LEVEL: 0

PSCL3 TOTAL     ACCESS:      15642  HIT:      15642  MISS:          0  HIT %:        100  MISS %:          0   MPKI: 0
PSCL3 LOAD TRANSLATION ACCESS:      15642  HIT:      15642  MISS:          0  HIT %:        100  MISS %:          0   MPKI: 0
PSCL3 PREFETCH  REQUESTED:          0  ISSUED:          0  USEFUL:          0  USELESS:          0
PSCL3 USEFUL LOAD PREFETCHES:          0 PREFETCH ISSUED TO LOWER LEVEL:          0  ACCURACY: -nan
PSCL3 TIMELY PREFETCHES:          0 LATE PREFETCHES: 0 DROPPED PREFETCHES: 0
PSCL3 PREFETCHES SAME FILL-ORIGIN LEVEL: 0 DIFFERENT FILL-ORIGIN LEVEL: 0

PSCL2 TOTAL     ACCESS:      15642  HIT:      15625  MISS:         17  HIT %:    99.8913  MISS %:   0.108682   MPKI: 0.00068
PSCL2 LOAD TRANSLATION ACCESS:      15642  HIT:      15625  MISS:         17  HIT %:    99.8913  MISS %:   0.108682   MPKI: 0.00068
PSCL2 PREFETCH  REQUESTED:          0  ISSUED:          0  USEFUL:          0  USELESS:          0
PSCL2 USEFUL LOAD PREFETCHES:          0 PREFETCH ISSUED TO LOWER LEVEL:          0  ACCURACY: -nan
PSCL2 TIMELY PREFETCHES:          0 LATE PREFETCHES: 0 DROPPED PREFETCHES: 0
PSCL2 PREFETCHES SAME FILL-ORIGIN LEVEL: 0 DIFFERENT FILL-ORIGIN LEVEL: 0

LLC TOTAL     ACCESS:    1789935  HIT:     787206  MISS:    1002729  HIT %:    43.9796  MISS %:    56.0204   MPKI: 40.1092
LLC LOAD      ACCESS:     128239  HIT:       4770  MISS:     123469  HIT %:    3.71962  MISS %:    96.2804   MPKI: 4.93876
LLC RFO       ACCESS:     756173  HIT:       5658  MISS:     750515  HIT %:   0.748241  MISS %:    99.2518   MPKI: 30.0206
LLC PREFETCH  ACCESS:     146470  HIT:      19732  MISS:     126738  HIT %:    13.4717  MISS %:    86.5283   MPKI: 5.06952
AGUS PREFETCH L1 MISS: 0
LLC WRITEBACK ACCESS:     757076  HIT:     757046  MISS:         30  HIT %:     99.996  MISS %: 0.00396261   MPKI: 0.0012
LLC LOAD TRANSLATION ACCESS:       1977  HIT:          0  MISS:       1977  HIT %:          0  MISS %:        100   MPKI: 0.07908
LLC PREFETCH  REQUESTED:          0  ISSUED:          0  USEFUL:       4768  USELESS:     120482
LLC USEFUL LOAD PREFETCHES:       4768 PREFETCH ISSUED TO LOWER LEVEL:     134437  ACCURACY: 3.54664
LLC TIMELY PREFETCHES:       4768 LATE PREFETCHES: 7697 DROPPED PREFETCHES: 0
LLC PREFETCHES SAME FILL-ORIGIN LEVEL: 37004 DIFFERENT FILL-ORIGIN LEVEL: 0
LLC AVERAGE MISS LATENCY: 567.054 cycles
LLC RQ	ACCESS:     886412	FORWARD:          0	MERGED:          0	TO_CACHE:     886404
LLC WQ	ACCESS:     757076	FORWARD:          8	MERGED:          0	TO_CACHE:     757076
LLC PQ	ACCESS:     171406	FORWARD:          0	MERGED:       1515	TO_CACHE:     169891

LLC Dense regions hint to LLC: 0

RAW hits: 1977558
Reg RAW dependents: 19487637
Loads Generated: 6321653
Loads sent to L1D: 4344087
Stores Generated: 4349455
Stores sent to L1D: 4349460
Major fault: 0 Minor fault: 19681
Allocated PAGES: 19681
Average branch resolution latency (in cycles): 71.2918
CPU 0 L2C Region based offset prefetcher final stats

DRAM Statistics
 CHANNEL 0
 RQ ROW_BUFFER_HIT:      78843  ROW_BUFFER_MISS:     923856
 DBUS_CONGESTED:          0
 WQ ROW_BUFFER_HIT:     162944  ROW_BUFFER_MISS:     588405  FULL:          0

 AVG_CONGESTED_CYCLE: -
 All warmup complete: 2
Channel 0 Bank busy for read cycles: 0
Channel 0 Bank busy for write cycles: 0
Channel 0
Rank 0
0banks busy for read cycles: 12616
0banks busy for write cycles: 0
1banks busy for read cycles: 1231421
1banks busy for write cycles: 76522
2banks busy for read cycles: 528496
2banks busy for write cycles: 76522
3banks busy for read cycles: 656187
3banks busy for write cycles: 76522
4banks busy for read cycles: 3531429
4banks busy for write cycles: 76522
5banks busy for read cycles: 4563907
5banks busy for write cycles: 76522
6banks busy for read cycles: 4789365
6banks busy for write cycles: 76579
7banks busy for read cycles: 5958684
7banks busy for write cycles: 829286
8banks busy for read cycles: 6212956
8banks busy for write cycles: 14773314

CPU 0 Branch Prediction Accuracy: 97.8416% MPKI: 0.34208 Average ROB Occupancy at Mispredict: 250.149
Branch types
NOT_BRANCH: 24603991 98.4159%
BRANCH_DIRECT_JUMP: 52070 0.20828%
BRANCH_INDIRECT: 0 0%
BRANCH_CONDITIONAL: 344150 1.3766%
BRANCH_DIRECT_CALL: 0 0%
BRANCH_INDIRECT_CALL: 0 0%
BRANCH_RETURN: 0 0%
BRANCH_OTHER: 0 0%

DRAM PAGES: 1048576
Allocated PAGES: 19681
