
*** ChampSim Multicore Out-of-Order Simulator ***

Warmup Instructions: 25000000
Simulation Instructions: 25000000
Number of CPUs: 1
LLC sets: 2048
LLC ways: 16
Off-chip DRAM Size: 4096 MB Channels: 1 Width: 64-bit Data Rate: 6400 MT/s
CPU 0 runs ../../traces/trace1.champsimtrace.xz
.xz
BTB has LRU replacement policy
ITLB has LRU replacement policy
DTLB has LRU replacement policy
STLB has LRU replacement policy
L1I has LRU replacement policy
L1D has LRU replacement policy
CPU 0 Region based L2 offset prefetcher
L2C has LRU replacement policy
LLC has LRU replacement policy
Heartbeat CPU 0 instructions: 10000000 cycles: 2548597 heartbeat IPC: 3.92373 cumulative IPC: 3.92373 (Simulation time: 0 hr 0 min 12 sec) 
Heartbeat CPU 0 instructions: 20000001 cycles: 5092630 heartbeat IPC: 3.93077 cumulative IPC: 3.92724 (Simulation time: 0 hr 0 min 24 sec) 

Warmup complete CPU 0 instructions: 25000008 cycles: 6361226 (Simulation time: 0 hr 0 min 30 sec) 

Heartbeat CPU 0 instructions: 30000007 cycles: 15354533 heartbeat IPC: 0.974479 cumulative IPC: 0.555969 (Simulation time: 0 hr 0 min 56 sec) 
Heartbeat CPU 0 instructions: 40000002 cycles: 32911736 heartbeat IPC: 0.569567 cumulative IPC: 0.564961 (Simulation time: 0 hr 1 min 48 sec) 
Heartbeat CPU 0 instructions: 50000006 cycles: 49891434 heartbeat IPC: 0.588939 cumulative IPC: 0.574314 (Simulation time: 0 hr 2 min 39 sec) 
Finished CPU 0 instructions: 25000004 cycles: 43530222 cumulative IPC: 0.574314 (Simulation time: 0 hr 2 min 39 sec) 

ChampSim completed all CPUs

Region of Interest Statistics

CPU 0 cumulative IPC: 0.574314 instructions: 25000004 cycles: 43530222
ITLB TOTAL     ACCESS:    3457358  HIT:    3457358  MISS:          0  HIT %:        100  MISS %:          0   MPKI: 0
ITLB LOAD TRANSLATION ACCESS:    3457358  HIT:    3457358  MISS:          0  HIT %:        100  MISS %:          0   MPKI: 0
ITLB PREFETCH  REQUESTED:          0  ISSUED:          0  USEFUL:          0  USELESS:          0
ITLB USEFUL LOAD PREFETCHES:          0 PREFETCH ISSUED TO LOWER LEVEL:          0  ACCURACY: -nan
ITLB TIMELY PREFETCHES:          0 LATE PREFETCHES: 0 DROPPED PREFETCHES: 0
ITLB PREFETCHES SAME FILL-ORIGIN LEVEL: 0 DIFFERENT FILL-ORIGIN LEVEL: 0
ITLB AVERAGE MISS LATENCY: -nan cycles
ITLB RQ	ACCESS:    4425180	FORWARD:          0	MERGED:     967822	TO_CACHE:    3457358

DTLB TOTAL     ACCESS:    3438913  HIT:    3410088  MISS:      28825  HIT %:    99.1618  MISS %:   0.838201   MPKI: 1.153
DTLB LOAD TRANSLATION ACCESS:    3438913  HIT:    3410088  MISS:      28825  HIT %:    99.1618  MISS %:   0.838201   MPKI: 1.153
DTLB PREFETCH  REQUESTED:          0  ISSUED:          0  USEFUL:          0  USELESS:          0
DTLB USEFUL LOAD PREFETCHES:          0 PREFETCH ISSUED TO LOWER LEVEL:          0  ACCURACY: -nan
DTLB TIMELY PREFETCHES:          0 LATE PREFETCHES: 0 DROPPED PREFETCHES: 0
DTLB PREFETCHES SAME FILL-ORIGIN LEVEL: 0 DIFFERENT FILL-ORIGIN LEVEL: 0
DTLB AVERAGE MISS LATENCY: 120.709 cycles
DTLB RQ	ACCESS:    5526216	FORWARD:          0	MERGED:    2075395	TO_CACHE:    3450821

STLB TOTAL     ACCESS:      28825  HIT:      13183  MISS:      15642  HIT %:    45.7346  MISS %:    54.2654   MPKI: 0.62568
STLB LOAD TRANSLATION ACCESS:      28825  HIT:      13183  MISS:      15642  HIT %:    45.7346  MISS %:    54.2654   MPKI: 0.62568
STLB PREFETCH  REQUESTED:          0  ISSUED:          0  USEFUL:          0  USELESS:          0
STLB USEFUL LOAD PREFETCHES:          0 PREFETCH ISSUED TO LOWER LEVEL:          0  ACCURACY: -nan
STLB TIMELY PREFETCHES:          0 LATE PREFETCHES: 0 DROPPED PREFETCHES: 0
STLB PREFETCHES SAME FILL-ORIGIN LEVEL: 0 DIFFERENT FILL-ORIGIN LEVEL: 0
STLB AVERAGE MISS LATENCY: 202.308 cycles
STLB RQ	ACCESS:      28825	FORWARD:          0	MERGED:          0	TO_CACHE:      28825

STLB Hit, L1D data hit: 0
STLB Hit, L2C data hit: 0
STLB Hit, LLC data hit: 0
STLB Hit, LLC data miss: 0
STLB STLB hints to L2: 0
L1D TOTAL     ACCESS:    5445163  HIT:    3793908  MISS:    1651255  HIT %:    69.6748  MISS %:    30.3252   MPKI: 66.0502
L1D LOAD      ACCESS:    1351497  HIT:    1101289  MISS:     250208  HIT %:    81.4866  MISS %:    18.5134   MPKI: 10.0083
L1D RFO       ACCESS:    4093666  HIT:    2692619  MISS:    1401047  HIT %:    65.7752  MISS %:    34.2248   MPKI: 56.0419
L1D PREFETCH  REQUESTED:          0  ISSUED:          0  USEFUL:          0  USELESS:          0
L1D USEFUL LOAD PREFETCHES:          0 PREFETCH ISSUED TO LOWER LEVEL:          0  ACCURACY: -nan
L1D TIMELY PREFETCHES:          0 LATE PREFETCHES: 0 DROPPED PREFETCHES: 0
L1D PREFETCHES SAME FILL-ORIGIN LEVEL: 0 DIFFERENT FILL-ORIGIN LEVEL: 0
L1D AVERAGE MISS LATENCY: 340.172 cycles
L1D RQ	ACCESS:    4351802	FORWARD:          0	MERGED:    2607638	TO_CACHE:    1411722
L1D WQ	ACCESS:    4349460	FORWARD:     332442	MERGED:     234966	TO_CACHE:    4114494

L1D UNIQUE REGIONS ACCESSED: 0
L1D REGIONS CONFLICTS: 0
L1D Cross Page Prefetch Requests: 0
L1D Same Page Prefetch Requests: 0
L1D ROI Sum of L1D PQ occupancy: 0
L1D PREFETCHES PUSHED FROM L2C: 0
L1I TOTAL     ACCESS:    4425179  HIT:    4425179  MISS:          0  HIT %:        100  MISS %:          0   MPKI: 0
L1I LOAD      ACCESS:    4425179  HIT:    4425179  MISS:          0  HIT %:        100  MISS %:          0   MPKI: 0
L1I PREFETCH  REQUESTED:          0  ISSUED:          0  USEFUL:          0  USELESS:          0
L1I USEFUL LOAD PREFETCHES:          0 PREFETCH ISSUED TO LOWER LEVEL:          0  ACCURACY: -nan
L1I TIMELY PREFETCHES:          0 LATE PREFETCHES: 0 DROPPED PREFETCHES: 0
L1I PREFETCHES SAME FILL-ORIGIN LEVEL: 0 DIFFERENT FILL-ORIGIN LEVEL: 0
L1I AVERAGE MISS LATENCY: -nan cycles
L1I RQ	ACCESS:    6444444	FORWARD:          0	MERGED:    2019264	TO_CACHE:    4425180

BTB TOTAL     ACCESS:     396212  HIT:     396206  MISS:          6  HIT %:    99.9985  MISS %: 0.00151434   MPKI: 0.00024
BTB BRANCH_DIRECT_JUMP	ACCESS:      52070  HIT:      52069  MISS:          1
BTB BRANCH_INDIRECT	ACCESS:          0  HIT:          0  MISS:          0
BTB BRANCH_CONDITIONAL	ACCESS:     344142  HIT:     344137  MISS:          5
BTB BRANCH_DIRECT_CALL	ACCESS:          0  HIT:          0  MISS:          0
BTB BRANCH_INDIRECT_CALL	ACCESS:          0  HIT:          0  MISS:          0
BTB BRANCH_RETURN	ACCESS:          0  HIT:          0  MISS:          0
BTB BRANCH_OTHER ACCESS:          0  HIT:          0  MISS:          0

L2C TOTAL     ACCESS:    3419376  HIT:    2410813  MISS:    1008563  HIT %:    70.5045  MISS %:    29.4955   MPKI: 40.3425
L2C LOAD      ACCESS:     250208  HIT:      83548  MISS:     166660  HIT %:    33.3914  MISS %:    66.6086   MPKI: 6.6664
L2C DATA LOAD MPKI: 6.6664
L2C INSTRUCTION LOAD MPKI: 0
L2C RFO       ACCESS:    1401047  HIT:     644706  MISS:     756341  HIT %:     46.016  MISS %:     53.984   MPKI: 30.2536
L2C PREFETCH  ACCESS:     351425  HIT:     267870  MISS:      83555  HIT %:    76.2239  MISS %:    23.7761   MPKI: 3.3422
AGUS PREFETCH L1 MISS: 0
L2C DATA PREFETCH MPKI: 3.3422
L2C INSTRUCTION PREFETCH MPKI: 0
L2C WRITEBACK ACCESS:    1401052  HIT:    1401022  MISS:         30  HIT %:    99.9979  MISS %: 0.00214125   MPKI: 0.0012
L2C LOAD TRANSLATION ACCESS:      15644  HIT:      13667  MISS:       1977  HIT %:    87.3626  MISS %:    12.6374   MPKI: 0.07908
L2C PREFETCH  REQUESTED:     754814  ISSUED:     754272  USEFUL:      83538  USELESS:         21
L2C USEFUL LOAD PREFETCHES:      83538 PREFETCH ISSUED TO LOWER LEVEL:     171148  ACCURACY: 48.8104
L2C TIMELY PREFETCHES:      83538 LATE PREFETCHES: 37789 DROPPED PREFETCHES: 0
L2C PREFETCHES SAME FILL-ORIGIN LEVEL: 121344 DIFFERENT FILL-ORIGIN LEVEL: 49804
L2C AVERAGE MISS LATENCY: 571.291 cycles
L2C RQ	ACCESS:    1666909	FORWARD:          0	MERGED:          0	TO_CACHE:    1666909
L2C WQ	ACCESS:    1401052	FORWARD:          0	MERGED:          0	TO_CACHE:    1401052
L2C PQ	ACCESS:     754272	FORWARD:          0	MERGED:     134434	TO_CACHE:     619838

L2C Instructions Evicting Data 0
L2C Translations Evicting Data 1975
L2C Data Evicting Data 1004573
L2C Instructions Evicting Instructions 0
L2C Translations Evicting Instructions 0
L2C Data Evicting Instructions 0
L2C Instructions Evicting Translations 0
L2C Translations Evicting Translations 2
L2C Data Evicting Translations 1983
L2C Dense regions hint from L2: 0
PSCL5 TOTAL     ACCESS:      15642  HIT:      15642  MISS:          0  HIT %:        100  MISS %:          0   MPKI: 0
PSCL5 LOAD TRANSLATION ACCESS:      15642  HIT:      15642  MISS:          0  HIT %:        100  MISS %:          0   MPKI: 0
PSCL5 PREFETCH  REQUESTED:          0  ISSUED:          0  USEFUL:          0  USELESS:          0
PSCL5 USEFUL LOAD PREFETCHES:          0 PREFETCH ISSUED TO LOWER LEVEL:          0  ACCURACY: -nan
PSCL5 TIMELY PREFETCHES:          0 LATE PREFETCHES: 0 DROPPED PREFETCHES: 0
PSCL5 PREFETCHES SAME FILL-ORIGIN LEVEL: 0 DIFFERENT FILL-ORIGIN LEVEL: 0

PSCL4 TOTAL     ACCESS:      15642  HIT:      15642  MISS:          0  HIT %:        100  MISS %:          0   MPKI: 0
PSCL4 LOAD TRANSLATION ACCESS:      15642  HIT:      15642  MISS:          0  HIT %:        100  MISS %:          0   MPKI: 0
PSCL4 PREFETCH  REQUESTED:          0  ISSUED:          0  USEFUL:          0  USELESS:          0
PSCL4 USEFUL LOAD PREFETCHES:          0 PREFETCH ISSUED TO LOWER LEVEL:          0  ACCURACY: -nan
PSCL4 TIMELY PREFETCHES:          0 LATE PREFETCHES: 0 DROPPED PREFETCHES: 0
PSCL4 PREFETCHES SAME FILL-ORIGIN LEVEL: 0 DIFFERENT FILL-ORIGIN LEVEL: 0

PSCL3 TOTAL     ACCESS:      15642  HIT:      15642  MISS:          0  HIT %:        100  MISS %:          0   MPKI: 0
PSCL3 LOAD TRANSLATION ACCESS:      15642  HIT:      15642  MISS:          0  HIT %:        100  MISS %:          0   MPKI: 0
PSCL3 PREFETCH  REQUESTED:          0  ISSUED:          0  USEFUL:          0  USELESS:          0
PSCL3 USEFUL LOAD PREFETCHES:          0 PREFETCH ISSUED TO LOWER LEVEL:          0  ACCURACY: -nan
PSCL3 TIMELY PREFETCHES:          0 LATE PREFETCHES: 0 DROPPED PREFETCHES: 0
PSCL3 PREFETCHES SAME FILL-ORIGIN LEVEL: 0 DIFFERENT FILL-ORIGIN LEVEL: 0

PSCL2 TOTAL     ACCESS:      15642  HIT:      15625  MISS:         17  HIT %:    99.8913  MISS %:   0.108682   MPKI: 0.00068
PSCL2 LOAD TRANSLATION ACCESS:      15642  HIT:      15625  MISS:         17  HIT %:    99.8913  MISS %:   0.108682   MPKI: 0.00068
PSCL2 PREFETCH  REQUESTED:          0  ISSUED:          0  USEFUL:          0  USELESS:          0
PSCL2 USEFUL LOAD PREFETCHES:          0 PREFETCH ISSUED TO LOWER LEVEL:          0  ACCURACY: -nan
PSCL2 TIMELY PREFETCHES:          0 LATE PREFETCHES: 0 DROPPED PREFETCHES: 0
PSCL2 PREFETCHES SAME FILL-ORIGIN LEVEL: 0 DIFFERENT FILL-ORIGIN LEVEL: 0

LLC TOTAL     ACCESS:    1790628  HIT:     787876  MISS:    1002752  HIT %:         44  MISS %:         56   MPKI: 40.1101
LLC LOAD      ACCESS:     128871  HIT:       4965  MISS:     123906  HIT %:    3.85269  MISS %:    96.1473   MPKI: 4.95624
LLC RFO       ACCESS:     756326  HIT:       5796  MISS:     750530  HIT %:   0.766336  MISS %:    99.2337   MPKI: 30.0212
LLC PREFETCH  ACCESS:     146163  HIT:      19854  MISS:     126309  HIT %:    13.5835  MISS %:    86.4165   MPKI: 5.05236
AGUS PREFETCH L1 MISS: 0
LLC WRITEBACK ACCESS:     757291  HIT:     757261  MISS:         30  HIT %:     99.996  MISS %: 0.00396149   MPKI: 0.0012
LLC LOAD TRANSLATION ACCESS:       1977  HIT:          0  MISS:       1977  HIT %:          0  MISS %:        100   MPKI: 0.07908
LLC PREFETCH  REQUESTED:          0  ISSUED:          0  USEFUL:       4965  USELESS:     119895
LLC USEFUL LOAD PREFETCHES:       4965 PREFETCH ISSUED TO LOWER LEVEL:     134116  ACCURACY: 3.70202
LLC TIMELY PREFETCHES:       4965 LATE PREFETCHES: 7807 DROPPED PREFETCHES: 0
LLC PREFETCHES SAME FILL-ORIGIN LEVEL: 37321 DIFFERENT FILL-ORIGIN LEVEL: 0
LLC AVERAGE MISS LATENCY: 566.369 cycles
LLC RQ	ACCESS:     887199	FORWARD:          0	MERGED:          0	TO_CACHE:     887184
LLC WQ	ACCESS:     757291	FORWARD:         15	MERGED:          0	TO_CACHE:     757291
LLC PQ	ACCESS:     171148	FORWARD:          0	MERGED:       1515	TO_CACHE:     169633

LLC Dense regions hint to LLC: 0

RAW hits: 1969853
Reg RAW dependents: 19480820
Loads Generated: 6321679
Loads sent to L1D: 4351802
Stores Generated: 4349455
Stores sent to L1D: 4349460
Major fault: 0 Minor fault: 19681
Allocated PAGES: 19681
Average branch resolution latency (in cycles): 72.4902
CPU 0 L2C Region based offset prefetcher final stats

DRAM Statistics
 CHANNEL 0
 RQ ROW_BUFFER_HIT:      78950  ROW_BUFFER_MISS:     923772
 DBUS_CONGESTED:          0
 WQ ROW_BUFFER_HIT:     162753  ROW_BUFFER_MISS:     588685  FULL:          0

 AVG_CONGESTED_CYCLE: -
 All warmup complete: 2
Channel 0 Bank busy for read cycles: 0
Channel 0 Bank busy for write cycles: 0
Channel 0
Rank 0
0banks busy for read cycles: 12426
0banks busy for write cycles: 0
1banks busy for read cycles: 1204043
1banks busy for write cycles: 76495
2banks busy for read cycles: 524726
2banks busy for write cycles: 76495
3banks busy for read cycles: 657592
3banks busy for write cycles: 76494
4banks busy for read cycles: 3530896
4banks busy for write cycles: 76494
5banks busy for read cycles: 4552567
5banks busy for write cycles: 76494
6banks busy for read cycles: 4819658
6banks busy for write cycles: 76587
7banks busy for read cycles: 5971828
7banks busy for write cycles: 829802
8banks busy for read cycles: 6187099
8banks busy for write cycles: 14780527

CPU 0 Branch Prediction Accuracy: 97.8416% MPKI: 0.34208 Average ROB Occupancy at Mispredict: 249.673
Branch types
NOT_BRANCH: 24604096 98.4164%
BRANCH_DIRECT_JUMP: 52070 0.20828%
BRANCH_INDIRECT: 0 0%
BRANCH_CONDITIONAL: 344150 1.3766%
BRANCH_DIRECT_CALL: 0 0%
BRANCH_INDIRECT_CALL: 0 0%
BRANCH_RETURN: 0 0%
BRANCH_OTHER: 0 0%

DRAM PAGES: 1048576
Allocated PAGES: 19681
