
*** ChampSim Multicore Out-of-Order Simulator ***

Warmup Instructions: 25000000
Simulation Instructions: 25000000
Number of CPUs: 1
LLC sets: 2048
LLC ways: 16
Off-chip DRAM Size: 4096 MB Channels: 1 Width: 64-bit Data Rate: 6400 MT/s
CPU 0 runs ../../traces/trace2.champsimtrace.xz
.xz
BTB has LRU replacement policy
ITLB has LRU replacement policy
DTLB has LRU replacement policy
STLB has LRU replacement policy
L1I has LRU replacement policy
L1D has LRU replacement policy
CPU 0 Region based L2 offset prefetcher
L2C has LRU replacement policy
LLC has LRU replacement policy
Heartbeat CPU 0 instructions: 10000000 cycles: 2546269 heartbeat IPC: 3.92731 cumulative IPC: 3.92731 (Simulation time: 0 hr 0 min 12 sec) 
Heartbeat CPU 0 instructions: 20000007 cycles: 5090731 heartbeat IPC: 3.93011 cumulative IPC: 3.92871 (Simulation time: 0 hr 0 min 23 sec) 

Warmup complete CPU 0 instructions: 25000002 cycles: 6362037 (Simulation time: 0 hr 0 min 29 sec) 

Heartbeat CPU 0 instructions: 30000000 cycles: 16380329 heartbeat IPC: 0.88577 cumulative IPC: 0.499087 (Simulation time: 0 hr 1 min 0 sec) 
Heartbeat CPU 0 instructions: 40000005 cycles: 36313344 heartbeat IPC: 0.50168 cumulative IPC: 0.500813 (Simulation time: 0 hr 2 min 8 sec) 
Heartbeat CPU 0 instructions: 50000004 cycles: 56729578 heartbeat IPC: 0.489806 cumulative IPC: 0.496351 (Simulation time: 0 hr 3 min 16 sec) 
Finished CPU 0 instructions: 25000002 cycles: 50367541 cumulative IPC: 0.496351 (Simulation time: 0 hr 3 min 16 sec) 

ChampSim completed all CPUs

Region of Interest Statistics

CPU 0 cumulative IPC: 0.496351 instructions: 25000002 cycles: 50367541
ITLB TOTAL     ACCESS:    3521455  HIT:    3521455  MISS:          0  HIT %:        100  MISS %:          0   MPKI: 0
ITLB LOAD TRANSLATION ACCESS:    3521455  HIT:    3521455  MISS:          0  HIT %:        100  MISS %:          0   MPKI: 0
ITLB PREFETCH  REQUESTED:          0  ISSUED:          0  USEFUL:          0  USELESS:          0
ITLB USEFUL LOAD PREFETCHES:          0 PREFETCH ISSUED TO LOWER LEVEL:          0  ACCURACY: -nan
ITLB TIMELY PREFETCHES:          0 LATE PREFETCHES: 0 DROPPED PREFETCHES: 0
ITLB PREFETCHES SAME FILL-ORIGIN LEVEL: 0 DIFFERENT FILL-ORIGIN LEVEL: 0
ITLB AVERAGE MISS LATENCY: -nan cycles
ITLB RQ	ACCESS:    4473798	FORWARD:          0	MERGED:     952344	TO_CACHE:    3521454

DTLB TOTAL     ACCESS:    3638131  HIT:    3604083  MISS:      34048  HIT %:    99.0641  MISS %:   0.935865   MPKI: 1.36192
DTLB LOAD TRANSLATION ACCESS:    3638131  HIT:    3604083  MISS:      34048  HIT %:    99.0641  MISS %:   0.935865   MPKI: 1.36192
DTLB PREFETCH  REQUESTED:          0  ISSUED:          0  USEFUL:          0  USELESS:          0
DTLB USEFUL LOAD PREFETCHES:          0 PREFETCH ISSUED TO LOWER LEVEL:          0  ACCURACY: -nan
DTLB TIMELY PREFETCHES:          0 LATE PREFETCHES: 0 DROPPED PREFETCHES: 0
DTLB PREFETCHES SAME FILL-ORIGIN LEVEL: 0 DIFFERENT FILL-ORIGIN LEVEL: 0
DTLB AVERAGE MISS LATENCY: 120.335 cycles
DTLB RQ	ACCESS:    5671550	FORWARD:          0	MERGED:    2016334	TO_CACHE:    3655216

STLB TOTAL     ACCESS:      34048  HIT:      15572  MISS:      18476  HIT %:    45.7354  MISS %:    54.2646   MPKI: 0.73904
STLB LOAD TRANSLATION ACCESS:      34048  HIT:      15572  MISS:      18476  HIT %:    45.7354  MISS %:    54.2646   MPKI: 0.73904
STLB PREFETCH  REQUESTED:          0  ISSUED:          0  USEFUL:          0  USELESS:          0
STLB USEFUL LOAD PREFETCHES:          0 PREFETCH ISSUED TO LOWER LEVEL:          0  ACCURACY: -nan
STLB TIMELY PREFETCHES:          0 LATE PREFETCHES: 0 DROPPED PREFETCHES: 0
STLB PREFETCHES SAME FILL-ORIGIN LEVEL: 0 DIFFERENT FILL-ORIGIN LEVEL: 0
STLB AVERAGE MISS LATENCY: 203.475 cycles
STLB RQ	ACCESS:      34048	FORWARD:          0	MERGED:          0	TO_CACHE:      34048

STLB Hit, L1D data hit: 0
STLB Hit, L2C data hit: 0
STLB Hit, LLC data hit: 0
STLB Hit, LLC data miss: 0
STLB STLB hints to L2: 0
L1D TOTAL     ACCESS:    5582906  HIT:    3632373  MISS:    1950533  HIT %:    65.0624  MISS %:    34.9376   MPKI: 78.0213
L1D LOAD      ACCESS:    1311977  HIT:    1016425  MISS:     295552  HIT %:    77.4728  MISS %:    22.5272   MPKI: 11.8221
L1D RFO       ACCESS:    4270929  HIT:    2615948  MISS:    1654981  HIT %:    61.2501  MISS %:    38.7499   MPKI: 66.1992
L1D PREFETCH  REQUESTED:          0  ISSUED:          0  USEFUL:          0  USELESS:          0
L1D USEFUL LOAD PREFETCHES:          0 PREFETCH ISSUED TO LOWER LEVEL:          0  ACCURACY: -nan
L1D TIMELY PREFETCHES:          0 LATE PREFETCHES: 0 DROPPED PREFETCHES: 0
L1D PREFETCHES SAME FILL-ORIGIN LEVEL: 0 DIFFERENT FILL-ORIGIN LEVEL: 0
L1D AVERAGE MISS LATENCY: 350.757 cycles
L1D RQ	ACCESS:    4555707	FORWARD:          0	MERGED:    2826612	TO_CACHE:    1372036
L1D WQ	ACCESS:    4596609	FORWARD:     357059	MERGED:     297095	TO_CACHE:    4299514

L1D UNIQUE REGIONS ACCESSED: 0
L1D REGIONS CONFLICTS: 0
L1D Cross Page Prefetch Requests: 0
L1D Same Page Prefetch Requests: 0
L1D ROI Sum of L1D PQ occupancy: 0
L1D PREFETCHES PUSHED FROM L2C: 0
L1I TOTAL     ACCESS:    4473799  HIT:    4473799  MISS:          0  HIT %:        100  MISS %:          0   MPKI: 0
L1I LOAD      ACCESS:    4473799  HIT:    4473799  MISS:          0  HIT %:        100  MISS %:          0   MPKI: 0
L1I PREFETCH  REQUESTED:          0  ISSUED:          0  USEFUL:          0  USELESS:          0
L1I USEFUL LOAD PREFETCHES:          0 PREFETCH ISSUED TO LOWER LEVEL:          0  ACCURACY: -nan
L1I TIMELY PREFETCHES:          0 LATE PREFETCHES: 0 DROPPED PREFETCHES: 0
L1I PREFETCHES SAME FILL-ORIGIN LEVEL: 0 DIFFERENT FILL-ORIGIN LEVEL: 0
L1I AVERAGE MISS LATENCY: -nan cycles
L1I RQ	ACCESS:    6576919	FORWARD:          0	MERGED:    2103121	TO_CACHE:    4473798

BTB TOTAL     ACCESS:     446811  HIT:     446805  MISS:          6  HIT %:    99.9987  MISS %: 0.00134285   MPKI: 0.00024
BTB BRANCH_DIRECT_JUMP	ACCESS:      72121  HIT:      72120  MISS:          1
BTB BRANCH_INDIRECT	ACCESS:          0  HIT:          0  MISS:          0
BTB BRANCH_CONDITIONAL	ACCESS:     374690  HIT:     374685  MISS:          5
BTB BRANCH_DIRECT_CALL	ACCESS:          0  HIT:          0  MISS:          0
BTB BRANCH_INDIRECT_CALL	ACCESS:          0  HIT:          0  MISS:          0
BTB BRANCH_RETURN	ACCESS:          0  HIT:          0  MISS:          0
BTB BRANCH_OTHER ACCESS:          0  HIT:          0  MISS:          0

L2C TOTAL     ACCESS:    4147284  HIT:    2954279  MISS:    1193005  HIT %:    71.2341  MISS %:    28.7659   MPKI: 47.7202
L2C LOAD      ACCESS:     295552  HIT:     105153  MISS:     190399  HIT %:    35.5785  MISS %:    64.4215   MPKI: 7.61596
L2C DATA LOAD MPKI: 7.61596
L2C INSTRUCTION LOAD MPKI: 0
L2C RFO       ACCESS:    1654983  HIT:     759941  MISS:     895042  HIT %:    45.9184  MISS %:    54.0816   MPKI: 35.8017
L2C PREFETCH  ACCESS:     523285  HIT:     418103  MISS:     105182  HIT %:    79.8997  MISS %:    20.1003   MPKI: 4.20728
AGUS PREFETCH L1 MISS: 0
L2C DATA PREFETCH MPKI: 4.20728
L2C INSTRUCTION PREFETCH MPKI: 0
L2C WRITEBACK ACCESS:    1654986  HIT:    1654939  MISS:         47  HIT %:    99.9972  MISS %:  0.0028399   MPKI: 0.00188
L2C LOAD TRANSLATION ACCESS:      18478  HIT:      16143  MISS:       2335  HIT %:    87.3634  MISS %:    12.6366   MPKI: 0.0934
L2C PREFETCH  REQUESTED:    1091651  ISSUED:    1054230  USEFUL:     105152  USELESS:         27
L2C USEFUL LOAD PREFETCHES:     105152 PREFETCH ISSUED TO LOWER LEVEL:     224189  ACCURACY: 46.9033
L2C TIMELY PREFETCHES:     105152 LATE PREFETCHES: 40866 DROPPED PREFETCHES: 0
L2C PREFETCHES SAME FILL-ORIGIN LEVEL: 146050 DIFFERENT FILL-ORIGIN LEVEL: 78139
L2C AVERAGE MISS LATENCY: 591.148 cycles
L2C RQ	ACCESS:    1969027	FORWARD:          0	MERGED:          0	TO_CACHE:    1969026
L2C WQ	ACCESS:    1654987	FORWARD:          1	MERGED:          0	TO_CACHE:    1654987
L2C PQ	ACCESS:    1054230	FORWARD:          0	MERGED:     188499	TO_CACHE:     865731

L2C Instructions Evicting Data 0
L2C Translations Evicting Data 2308
L2C Data Evicting Data 1188313
L2C Instructions Evicting Instructions 0
L2C Translations Evicting Instructions 0
L2C Data Evicting Instructions 0
L2C Instructions Evicting Translations 0
L2C Translations Evicting Translations 27
L2C Data Evicting Translations 2310
L2C Dense regions hint from L2: 0
PSCL5 TOTAL     ACCESS:      18476  HIT:      18476  MISS:          0  HIT %:        100  MISS %:          0   MPKI: 0
PSCL5 LOAD TRANSLATION ACCESS:      18476  HIT:      18476  MISS:          0  HIT %:        100  MISS %:          0   MPKI: 0
PSCL5 PREFETCH  REQUESTED:          0  ISSUED:          0  USEFUL:          0  USELESS:          0
PSCL5 USEFUL LOAD PREFETCHES:          0 PREFETCH ISSUED TO LOWER LEVEL:          0  ACCURACY: -nan
PSCL5 TIMELY PREFETCHES:          0 LATE PREFETCHES: 0 DROPPED PREFETCHES: 0
PSCL5 PREFETCHES SAME FILL-ORIGIN LEVEL: 0 DIFFERENT FILL-ORIGIN LEVEL: 0

PSCL4 TOTAL     ACCESS:      18476  HIT:      18476  MISS:          0  HIT %:        100  MISS %:          0   MPKI: 0
PSCL4 LOAD TRANSLATION ACCESS:      18476  HIT:      18476  MISS:          0  HIT %:        100  MISS %:          0   MPKI: 0
PSCL4 PREFETCH  REQUESTED:          0  ISSUED:          0  USEFUL:          0  USELESS:          0
PSCL4 USEFUL LOAD PREFETCHES:          0 PREFETCH ISSUED TO LOWER LEVEL:          0  ACCURACY: -nan
PSCL4 TIMELY PREFETCHES:          0 LATE PREFETCHES: 0 DROPPED PREFETCHES: 0
PSCL4 PREFETCHES SAME FILL-ORIGIN LEVEL: 0 DIFFERENT FILL-ORIGIN LEVEL: 0

PSCL3 TOTAL     ACCESS:      18476  HIT:      18476  MISS:          0  HIT %:        100  MISS %:          0   MPKI: 0
PSCL3 LOAD TRANSLATION ACCESS:      18476  HIT:      18476  MISS:          0  HIT %:        100  MISS %:          0   MPKI: 0
PSCL3 PREFETCH  REQUESTED:          0  ISSUED:          0  USEFUL:          0  USELESS:          0
PSCL3 USEFUL LOAD PREFETCHES:          0 PREFETCH ISSUED TO LOWER LEVEL:          0  ACCURACY: -nan
PSCL3 TIMELY PREFETCHES:          0 LATE PREFETCHES: 0 DROPPED PREFETCHES: 0
PSCL3 PREFETCHES SAME FILL-ORIGIN LEVEL: 0 DIFFERENT FILL-ORIGIN LEVEL: 0

PSCL2 TOTAL     ACCESS:      18476  HIT:      18456  MISS:         20  HIT %:    99.8918  MISS %:   0.108249   MPKI: 0.0008
PSCL2 LOAD TRANSLATION ACCESS:      18476  HIT:      18456  MISS:         20  HIT %:    99.8918  MISS %:   0.108249   MPKI: 0.0008
PSCL2 PREFETCH  REQUESTED:          0  ISSUED:          0  USEFUL:          0  USELESS:          0
PSCL2 USEFUL LOAD PREFETCHES:          0 PREFETCH ISSUED TO LOWER LEVEL:          0  ACCURACY: -nan
PSCL2 TIMELY PREFETCHES:          0 LATE PREFETCHES: 0 DROPPED PREFETCHES: 0
PSCL2 PREFETCHES SAME FILL-ORIGIN LEVEL: 0 DIFFERENT FILL-ORIGIN LEVEL: 0

LLC TOTAL     ACCESS:    2130593  HIT:     946074  MISS:    1184519  HIT %:    44.4043  MISS %:    55.5957   MPKI: 47.3808
LLC LOAD      ACCESS:     149533  HIT:       6734  MISS:     142799  HIT %:    4.50335  MISS %:    95.4966   MPKI: 5.71196
LLC RFO       ACCESS:     895041  HIT:       8474  MISS:     886567  HIT %:   0.946772  MISS %:    99.0532   MPKI: 35.4627
LLC PREFETCH  ACCESS:     188358  HIT:      35576  MISS:     152782  HIT %:    18.8874  MISS %:    81.1126   MPKI: 6.11128
AGUS PREFETCH L1 MISS: 0
LLC WRITEBACK ACCESS:     895326  HIT:     895290  MISS:         36  HIT %:     99.996  MISS %: 0.00402088   MPKI: 0.00144
LLC LOAD TRANSLATION ACCESS:       2335  HIT:          0  MISS:       2335  HIT %:          0  MISS %:        100   MPKI: 0.0934
LLC PREFETCH  REQUESTED:          0  ISSUED:          0  USEFUL:       6730  USELESS:     144779
LLC USEFUL LOAD PREFETCHES:       6730 PREFETCH ISSUED TO LOWER LEVEL:     162964  ACCURACY: 4.12975
LLC TIMELY PREFETCHES:       6730 LATE PREFETCHES: 10180 DROPPED PREFETCHES: 0
LLC PREFETCHES SAME FILL-ORIGIN LEVEL: 53361 DIFFERENT FILL-ORIGIN LEVEL: 0
LLC AVERAGE MISS LATENCY: 592.675 cycles
LLC RQ	ACCESS:    1046922	FORWARD:          0	MERGED:          0	TO_CACHE:    1046919
LLC WQ	ACCESS:     895328	FORWARD:          3	MERGED:          0	TO_CACHE:     895328
LLC PQ	ACCESS:     224189	FORWARD:          0	MERGED:       1642	TO_CACHE:     222547

LLC Dense regions hint to LLC: 0

RAW hits: 1956621
Reg RAW dependents: 19256981
Loads Generated: 6512333
Loads sent to L1D: 4555707
Stores Generated: 4596601
Stores sent to L1D: 4596609
Major fault: 0 Minor fault: 21636
Allocated PAGES: 21636
Average branch resolution latency (in cycles): 68.4092
CPU 0 L2C Region based offset prefetcher final stats

DRAM Statistics
 CHANNEL 0
 RQ ROW_BUFFER_HIT:     107252  ROW_BUFFER_MISS:    1077231
 DBUS_CONGESTED:          0
 WQ ROW_BUFFER_HIT:     190460  ROW_BUFFER_MISS:     695921  FULL:          0

 AVG_CONGESTED_CYCLE: -
 All warmup complete: 2
Channel 0 Bank busy for read cycles: 0
Channel 0 Bank busy for write cycles: 0
Channel 0
Rank 0
0banks busy for read cycles: 11083
0banks busy for write cycles: 0
1banks busy for read cycles: 1107339
1banks busy for write cycles: 89090
2banks busy for read cycles: 530964
2banks busy for write cycles: 89090
3banks busy for read cycles: 658170
3banks busy for write cycles: 89090
4banks busy for read cycles: 3357414
4banks busy for write cycles: 89090
5banks busy for read cycles: 4915917
5banks busy for write cycles: 89099
6banks busy for read cycles: 5809262
6banks busy for write cycles: 89155
7banks busy for read cycles: 7070922
7banks busy for write cycles: 977506
8banks busy for read cycles: 7990634
8banks busy for write cycles: 17403717

CPU 0 Branch Prediction Accuracy: 97.0469% MPKI: 0.5278 Average ROB Occupancy at Mispredict: 250.01
Branch types
NOT_BRANCH: 24553157 98.2126%
BRANCH_DIRECT_JUMP: 72121 0.288484%
BRANCH_INDIRECT: 0 0%
BRANCH_CONDITIONAL: 374692 1.49877%
BRANCH_DIRECT_CALL: 0 0%
BRANCH_INDIRECT_CALL: 0 0%
BRANCH_RETURN: 0 0%
BRANCH_OTHER: 0 0%

DRAM PAGES: 1048576
Allocated PAGES: 21636
