
*** ChampSim Multicore Out-of-Order Simulator ***

Warmup Instructions: 25000000
Simulation Instructions: 25000000
Number of CPUs: 1
LLC sets: 2048
LLC ways: 16
Off-chip DRAM Size: 4096 MB Channels: 1 Width: 64-bit Data Rate: 6400 MT/s
CPU 0 runs ../../traces/trace1.champsimtrace.xz
.xz
BTB has LRU replacement policy
ITLB has LRU replacement policy
DTLB has LRU replacement policy
STLB has LRU replacement policy
L1I has LRU replacement policy
L1D has LRU replacement policy
CPU 0 Region based L2 offset prefetcher
L2C has LRU replacement policy
LLC has LRU replacement policy
Heartbeat CPU 0 instructions: 10000000 cycles: 2548597 heartbeat IPC: 3.92373 cumulative IPC: 3.92373 (Simulation time: 0 hr 0 min 12 sec) 
Heartbeat CPU 0 instructions: 20000001 cycles: 5092630 heartbeat IPC: 3.93077 cumulative IPC: 3.92724 (Simulation time: 0 hr 0 min 23 sec) 

Warmup complete CPU 0 instructions: 25000008 cycles: 6361226 (Simulation time: 0 hr 0 min 29 sec) 

Heartbeat CPU 0 instructions: 30000007 cycles: 15348870 heartbeat IPC: 0.975017 cumulative IPC: 0.556319 (Simulation time: 0 hr 0 min 55 sec) 
Heartbeat CPU 0 instructions: 40000002 cycles: 32955059 heartbeat IPC: 0.567982 cumulative IPC: 0.56404 (Simulation time: 0 hr 1 min 50 sec) 
Heartbeat CPU 0 instructions: 50000000 cycles: 49905171 heartbeat IPC: 0.589966 cumulative IPC: 0.574132 (Simulation time: 0 hr 2 min 43 sec) 
Finished CPU 0 instructions: 25000004 cycles: 43543964 cumulative IPC: 0.574133 (Simulation time: 0 hr 2 min 43 sec) 

ChampSim completed all CPUs

Region of Interest Statistics

CPU 0 cumulative IPC: 0.574133 instructions: 25000004 cycles: 43543964
ITLB TOTAL     ACCESS:    3457613  HIT:    3457613  MISS:          0  HIT %:        100  MISS %:          0   MPKI: 0
ITLB LOAD TRANSLATION ACCESS:    3457613  HIT:    3457613  MISS:          0  HIT %:        100  MISS %:          0   MPKI: 0
ITLB PREFETCH  REQUESTED:          0  ISSUED:          0  USEFUL:          0  USELESS:          0
ITLB USEFUL LOAD PREFETCHES:          0 PREFETCH ISSUED TO LOWER LEVEL:          0  ACCURACY: -nan
ITLB TIMELY PREFETCHES:          0 LATE PREFETCHES: 0 DROPPED PREFETCHES: 0
ITLB PREFETCHES SAME FILL-ORIGIN LEVEL: 0 DIFFERENT FILL-ORIGIN LEVEL: 0
ITLB AVERAGE MISS LATENCY: -nan cycles
ITLB RQ	ACCESS:    4425567	FORWARD:          0	MERGED:     967955	TO_CACHE:    3457612

DTLB TOTAL     ACCESS:    3436665  HIT:    3407840  MISS:      28825  HIT %:    99.1613  MISS %:   0.838749   MPKI: 1.153
DTLB LOAD TRANSLATION ACCESS:    3436665  HIT:    3407840  MISS:      28825  HIT %:    99.1613  MISS %:   0.838749   MPKI: 1.153
DTLB PREFETCH  REQUESTED:          0  ISSUED:          0  USEFUL:          0  USELESS:          0
DTLB USEFUL LOAD PREFETCHES:          0 PREFETCH ISSUED TO LOWER LEVEL:          0  ACCURACY: -nan
DTLB TIMELY PREFETCHES:          0 LATE PREFETCHES: 0 DROPPED PREFETCHES: 0
DTLB PREFETCHES SAME FILL-ORIGIN LEVEL: 0 DIFFERENT FILL-ORIGIN LEVEL: 0
DTLB AVERAGE MISS LATENCY: 119.094 cycles
DTLB RQ	ACCESS:    5522609	FORWARD:          0	MERGED:    2074183	TO_CACHE:    3448426

STLB TOTAL     ACCESS:      28825  HIT:      13183  MISS:      15642  HIT %:    45.7346  MISS %:    54.2654   MPKI: 0.62568
STLB LOAD TRANSLATION ACCESS:      28825  HIT:      13183  MISS:      15642  HIT %:    45.7346  MISS %:    54.2654   MPKI: 0.62568
STLB PREFETCH  REQUESTED:          0  ISSUED:          0  USEFUL:          0  USELESS:          0
STLB USEFUL LOAD PREFETCHES:          0 PREFETCH ISSUED TO LOWER LEVEL:          0  ACCURACY: -nan
STLB TIMELY PREFETCHES:          0 LATE PREFETCHES: 0 DROPPED PREFETCHES: 0
STLB PREFETCHES SAME FILL-ORIGIN LEVEL: 0 DIFFERENT FILL-ORIGIN LEVEL: 0
STLB AVERAGE MISS LATENCY: 199.235 cycles
STLB RQ	ACCESS:      28825	FORWARD:          0	MERGED:          0	TO_CACHE:      28825

STLB Hit, L1D data hit: 0
STLB Hit, L2C data hit: 0
STLB Hit, LLC data hit: 0
STLB Hit, LLC data miss: 0
STLB STLB hints to L2: 0
L1D TOTAL     ACCESS:    5441729  HIT:    3790493  MISS:    1651236  HIT %:     69.656  MISS %:     30.344   MPKI: 66.0494
L1D LOAD      ACCESS:    1348844  HIT:    1098636  MISS:     250208  HIT %:    81.4502  MISS %:    18.5498   MPKI: 10.0083
L1D RFO       ACCESS:    4092885  HIT:    2691857  MISS:    1401028  HIT %:    65.7692  MISS %:    34.2308   MPKI: 56.0411
L1D PREFETCH  REQUESTED:          0  ISSUED:          0  USEFUL:          0  USELESS:          0
L1D USEFUL LOAD PREFETCHES:          0 PREFETCH ISSUED TO LOWER LEVEL:          0  ACCURACY: -nan
L1D TIMELY PREFETCHES:          0 LATE PREFETCHES: 0 DROPPED PREFETCHES: 0
L1D PREFETCHES SAME FILL-ORIGIN LEVEL: 0 DIFFERENT FILL-ORIGIN LEVEL: 0
L1D AVERAGE MISS LATENCY: 340.262 cycles
L1D RQ	ACCESS:    4349430	FORWARD:          0	MERGED:    2606795	TO_CACHE:    1408852
L1D WQ	ACCESS:    4349460	FORWARD:     333783	MERGED:     235703	TO_CACHE:    4113757

L1D UNIQUE REGIONS ACCESSED: 0
L1D REGIONS CONFLICTS: 0
L1D Cross Page Prefetch Requests: 0
L1D Same Page Prefetch Requests: 0
L1D ROI Sum of L1D PQ occupancy: 0
L1D PREFETCHES PUSHED FROM L2C: 0
L1I TOTAL     ACCESS:    4425567  HIT:    4425567  MISS:          0  HIT %:        100  MISS %:          0   MPKI: 0
L1I LOAD      ACCESS:    4425567  HIT:    4425567  MISS:          0  HIT %:        100  MISS %:          0   MPKI: 0
L1I PREFETCH  REQUESTED:          0  ISSUED:          0  USEFUL:          0  USELESS:          0
L1I USEFUL LOAD PREFETCHES:          0 PREFETCH ISSUED TO LOWER LEVEL:          0  ACCURACY: -nan
L1I TIMELY PREFETCHES:          0 LATE PREFETCHES: 0 DROPPED PREFETCHES: 0
L1I PREFETCHES SAME FILL-ORIGIN LEVEL: 0 DIFFERENT FILL-ORIGIN LEVEL: 0
L1I AVERAGE MISS LATENCY: -nan cycles
L1I RQ	ACCESS:    6444194	FORWARD:          0	MERGED:    2018627	TO_CACHE:    4425567

BTB TOTAL     ACCESS:     396212  HIT:     396206  MISS:          6  HIT %:    99.9985  MISS %: 0.00151434   MPKI: 0.00024
BTB BRANCH_DIRECT_JUMP	ACCESS:      52070  HIT:      52069  MISS:          1
BTB BRANCH_INDIRECT	ACCESS:          0  HIT:          0  MISS:          0
BTB BRANCH_CONDITIONAL	ACCESS:     344142  HIT:     344137  MISS:          5
BTB BRANCH_DIRECT_CALL	ACCESS:          0  HIT:          0  MISS:          0
BTB BRANCH_INDIRECT_CALL	ACCESS:          0  HIT:          0  MISS:          0
BTB BRANCH_RETURN	ACCESS:          0  HIT:          0  MISS:          0
BTB BRANCH_OTHER ACCESS:          0  HIT:          0  MISS:          0

L2C TOTAL     ACCESS:    3420572  HIT:    2411940  MISS:    1008632  HIT %:    70.5128  MISS %:    29.4872   MPKI: 40.3453
L2C LOAD      ACCESS:     250208  HIT:      83110  MISS:     167098  HIT %:    33.2164  MISS %:    66.7836   MPKI: 6.68392
L2C DATA LOAD MPKI: 6.68392
L2C INSTRUCTION LOAD MPKI: 0
L2C RFO       ACCESS:    1401028  HIT:     644614  MISS:     756414  HIT %:    46.0101  MISS %:    53.9899   MPKI: 30.2566
L2C PREFETCH  ACCESS:     352659  HIT:     269546  MISS:      83113  HIT %:    76.4325  MISS %:    23.5675   MPKI: 3.32452
AGUS PREFETCH L1 MISS: 0
L2C DATA PREFETCH MPKI: 3.32452
L2C INSTRUCTION PREFETCH MPKI: 0
L2C WRITEBACK ACCESS:    1401033  HIT:    1401003  MISS:         30  HIT %:    99.9979  MISS %: 0.00214128   MPKI: 0.0012
L2C LOAD TRANSLATION ACCESS:      15644  HIT:      13667  MISS:       1977  HIT %:    87.3626  MISS %:    12.6374   MPKI: 0.07908
L2C PREFETCH  REQUESTED:     753856  ISSUED:     753246  USEFUL:      83100  USELESS:         17
L2C USEFUL LOAD PREFETCHES:      83100 PREFETCH ISSUED TO LOWER LEVEL:     170041  ACCURACY: 48.8706
L2C TIMELY PREFETCHES:      83100 LATE PREFETCHES: 37334 DROPPED PREFETCHES: 0
L2C PREFETCHES SAME FILL-ORIGIN LEVEL: 120447 DIFFERENT FILL-ORIGIN LEVEL: 49594
L2C AVERAGE MISS LATENCY: 571.211 cycles
L2C RQ	ACCESS:    1666896	FORWARD:          0	MERGED:          0	TO_CACHE:    1666896
L2C WQ	ACCESS:    1401034	FORWARD:          0	MERGED:          0	TO_CACHE:    1401034
L2C PQ	ACCESS:     753246	FORWARD:          0	MERGED:     133197	TO_CACHE:     620049

L2C Instructions Evicting Data 0
L2C Translations Evicting Data 1974
L2C Data Evicting Data 1004643
L2C Instructions Evicting Instructions 0
L2C Translations Evicting Instructions 0
L2C Data Evicting Instructions 0
L2C Instructions Evicting Translations 0
L2C Translations Evicting Translations 3
L2C Data Evicting Translations 1982
L2C Dense regions hint from L2: 0
PSCL5 TOTAL     ACCESS:      15642  HIT:      15642  MISS:          0  HIT %:        100  MISS %:          0   MPKI: 0
PSCL5 LOAD TRANSLATION ACCESS:      15642  HIT:      15642  MISS:          0  HIT %:        100  MISS %:          0   MPKI: 0
PSCL5 PREFETCH  REQUESTED:          0  ISSUED:          0  USEFUL:          0  USELESS:          0
PSCL5 USEFUL LOAD PREFETCHES:          0 PREFETCH ISSUED TO LOWER LEVEL:          0  ACCURACY: -nan
PSCL5 TIMELY PREFETCHES:          0 LATE PREFETCHES: 0 DROPPED PREFETCHES: 0
PSCL5 PREFETCHES SAME FILL-ORIGIN LEVEL: 0 DIFFERENT FILL-ORIGIN LEVEL: 0

PSCL4 TOTAL     ACCESS:      15642  HIT:      15642  MISS:          0  HIT %:        100  MISS %:          0   MPKI: 0
PSCL4 LOAD TRANSLATION ACCESS:      15642  HIT:      15642  MISS:          0  HIT %:        100  MISS %:          0   MPKI: 0
PSCL4 PREFETCH  REQUESTED:          0  ISSUED:          0  USEFUL:          0  USELESS:          0
PSCL4 USEFUL LOAD PREFETCHES:          0 PREFETCH ISSUED TO LOWER LEVEL:          0  ACCURACY: -nan
PSCL4 TIMELY PREFETCHES:          0 LATE PREFETCHES: 0 DROPPED PREFETCHES: 0
PSCL4 PREFETCHES SAME FILL-ORIGIN LEVEL: 0 DIFFERENT FILL-ORIGIN LEVEL: 0

PSCL3 TOTAL     ACCESS:      15642  HIT:      15642  MISS:          0  HIT %:        100  MISS %:          0   MPKI: 0
PSCL3 LOAD TRANSLATION ACCESS:      15642  HIT:      15642  MISS:          0  HIT %:        100  MISS %:          0   MPKI: 0
PSCL3 PREFETCH  REQUESTED:          0  ISSUED:          0  USEFUL:          0  USELESS:          0
PSCL3 USEFUL LOAD PREFETCHES:          0 PREFETCH ISSUED TO LOWER LEVEL:          0  ACCURACY: -nan
PSCL3 TIMELY PREFETCHES:          0 LATE PREFETCHES: 0 DROPPED PREFETCHES: 0
PSCL3 PREFETCHES SAME FILL-ORIGIN LEVEL: 0 DIFFERENT FILL-ORIGIN LEVEL: 0

PSCL2 TOTAL     ACCESS:      15642  HIT:      15625  MISS:         17  HIT %:    99.8913  MISS %:   0.108682   MPKI: 0.00068
PSCL2 LOAD TRANSLATION ACCESS:      15642  HIT:      15625  MISS:         17  HIT %:    99.8913  MISS %:   0.108682   MPKI: 0.00068
PSCL2 PREFETCH  REQUESTED:          0  ISSUED:          0  USEFUL:          0  USELESS:          0
PSCL2 USEFUL LOAD PREFETCHES:          0 PREFETCH ISSUED TO LOWER LEVEL:          0  ACCURACY: -nan
PSCL2 TIMELY PREFETCHES:          0 LATE PREFETCHES: 0 DROPPED PREFETCHES: 0
PSCL2 PREFETCHES SAME FILL-ORIGIN LEVEL: 0 DIFFERENT FILL-ORIGIN LEVEL: 0

LLC TOTAL     ACCESS:    1790533  HIT:     787795  MISS:    1002738  HIT %:    43.9978  MISS %:    56.0022   MPKI: 40.1095
LLC LOAD      ACCESS:     129764  HIT:       4902  MISS:     124862  HIT %:    3.77763  MISS %:    96.2224   MPKI: 4.99448
LLC RFO       ACCESS:     756394  HIT:       5875  MISS:     750519  HIT %:   0.776712  MISS %:    99.2233   MPKI: 30.0208
LLC PREFETCH  ACCESS:     145055  HIT:      19705  MISS:     125350  HIT %:    13.5845  MISS %:    86.4155   MPKI: 5.014
AGUS PREFETCH L1 MISS: 0
LLC WRITEBACK ACCESS:     757343  HIT:     757313  MISS:         30  HIT %:     99.996  MISS %: 0.00396122   MPKI: 0.0012
LLC LOAD TRANSLATION ACCESS:       1977  HIT:          0  MISS:       1977  HIT %:          0  MISS %:        100   MPKI: 0.07908
LLC PREFETCH  REQUESTED:          0  ISSUED:          0  USEFUL:       4902  USELESS:     118988
LLC USEFUL LOAD PREFETCHES:       4902 PREFETCH ISSUED TO LOWER LEVEL:     133184  ACCURACY: 3.68062
LLC TIMELY PREFETCHES:       4902 LATE PREFETCHES: 7834 DROPPED PREFETCHES: 0
LLC PREFETCHES SAME FILL-ORIGIN LEVEL: 37030 DIFFERENT FILL-ORIGIN LEVEL: 0
LLC AVERAGE MISS LATENCY: 566.009 cycles
LLC RQ	ACCESS:     888170	FORWARD:          0	MERGED:          0	TO_CACHE:     888150
LLC WQ	ACCESS:     757343	FORWARD:         20	MERGED:          0	TO_CACHE:     757343
LLC PQ	ACCESS:     170041	FORWARD:          0	MERGED:       1570	TO_CACHE:     168471

LLC Dense regions hint to LLC: 0

RAW hits: 1972219
Reg RAW dependents: 19483636
Loads Generated: 6321666
Loads sent to L1D: 4349430
Stores Generated: 4349455
Stores sent to L1D: 4349460
Major fault: 0 Minor fault: 19681
Allocated PAGES: 19681
Average branch resolution latency (in cycles): 72.7116
CPU 0 L2C Region based offset prefetcher final stats

DRAM Statistics
 CHANNEL 0
 RQ ROW_BUFFER_HIT:      78446  ROW_BUFFER_MISS:     924262
 DBUS_CONGESTED:          0
 WQ ROW_BUFFER_HIT:     163369  ROW_BUFFER_MISS:     588091  FULL:          0

 AVG_CONGESTED_CYCLE: -
 All warmup complete: 2
Channel 0 Bank busy for read cycles: 0
Channel 0 Bank busy for write cycles: 0
Channel 0
Rank 0
0banks busy for read cycles: 12576
0banks busy for write cycles: 0
1banks busy for read cycles: 1231665
1banks busy for write cycles: 76513
2banks busy for read cycles: 520125
2banks busy for write cycles: 76513
3banks busy for read cycles: 642772
3banks busy for write cycles: 76513
4banks busy for read cycles: 3527447
4banks busy for write cycles: 76513
5banks busy for read cycles: 4550404
5banks busy for write cycles: 76513
6banks busy for read cycles: 4829639
6banks busy for write cycles: 76603
7banks busy for read cycles: 5977073
7banks busy for write cycles: 830413
8banks busy for read cycles: 6182448
8banks busy for write cycles: 14780235

CPU 0 Branch Prediction Accuracy: 97.8416% MPKI: 0.34208 Average ROB Occupancy at Mispredict: 248.502
Branch types
NOT_BRANCH: 24604027 98.4161%
BRANCH_DIRECT_JUMP: 52070 0.20828%
BRANCH_INDIRECT: 0 0%
BRANCH_CONDITIONAL: 344150 1.3766%
BRANCH_DIRECT_CALL: 0 0%
BRANCH_INDIRECT_CALL: 0 0%
BRANCH_RETURN: 0 0%
BRANCH_OTHER: 0 0%

DRAM PAGES: 1048576
Allocated PAGES: 19681
