
*** ChampSim Multicore Out-of-Order Simulator ***

Warmup Instructions: 25000000
Simulation Instructions: 25000000
Number of CPUs: 1
LLC sets: 2048
LLC ways: 16
Off-chip DRAM Size: 4096 MB Channels: 1 Width: 64-bit Data Rate: 6400 MT/s
CPU 0 runs ../../traces/trace1.champsimtrace.xz
.xz
BTB has LRU replacement policy
ITLB has LRU replacement policy
DTLB has LRU replacement policy
STLB has LRU replacement policy
L1I has LRU replacement policy
L1D has LRU replacement policy
CPU 0 Region based L2 offset prefetcher
L2C has LRU replacement policy
LLC has LRU replacement policy
Heartbeat CPU 0 instructions: 10000000 cycles: 2548688 heartbeat IPC: 3.92359 cumulative IPC: 3.92359 (Simulation time: 0 hr 0 min 12 sec) 
Heartbeat CPU 0 instructions: 20000001 cycles: 5092847 heartbeat IPC: 3.93057 cumulative IPC: 3.92708 (Simulation time: 0 hr 0 min 24 sec) 

Warmup complete CPU 0 instructions: 25000008 cycles: 6361578 (Simulation time: 0 hr 0 min 30 sec) 

Heartbeat CPU 0 instructions: 30000007 cycles: 15341950 heartbeat IPC: 0.975696 cumulative IPC: 0.55677 (Simulation time: 0 hr 0 min 57 sec) 
Heartbeat CPU 0 instructions: 40000002 cycles: 32882562 heartbeat IPC: 0.570105 cumulative IPC: 0.56559 (Simulation time: 0 hr 1 min 50 sec) 
Heartbeat CPU 0 instructions: 50000000 cycles: 49797033 heartbeat IPC: 0.59121 cumulative IPC: 0.575566 (Simulation time: 0 hr 2 min 39 sec) 
Finished CPU 0 instructions: 25000004 cycles: 43435474 cumulative IPC: 0.575567 (Simulation time: 0 hr 2 min 39 sec) 

ChampSim completed all CPUs

Region of Interest Statistics

CPU 0 cumulative IPC: 0.575567 instructions: 25000004 cycles: 43435474
ITLB TOTAL     ACCESS:    3459572  HIT:    3459572  MISS:          0  HIT %:        100  MISS %:          0   MPKI: 0
ITLB LOAD TRANSLATION ACCESS:    3459572  HIT:    3459572  MISS:          0  HIT %:        100  MISS %:          0   MPKI: 0
ITLB PREFETCH  REQUESTED:          0  ISSUED:          0  USEFUL:          0  USELESS:          0
ITLB USEFUL LOAD PREFETCHES:          0 PREFETCH ISSUED TO LOWER LEVEL:          0  ACCURACY: -nan
ITLB TIMELY PREFETCHES:          0 LATE PREFETCHES: 0 DROPPED PREFETCHES: 0
ITLB PREFETCHES SAME FILL-ORIGIN LEVEL: 0 DIFFERENT FILL-ORIGIN LEVEL: 0
ITLB AVERAGE MISS LATENCY: -nan cycles
ITLB RQ	ACCESS:    4427299	FORWARD:          0	MERGED:     967728	TO_CACHE:    3459571

DTLB TOTAL     ACCESS:    3418565  HIT:    3389740  MISS:      28825  HIT %:    99.1568  MISS %:    0.84319   MPKI: 1.153
DTLB LOAD TRANSLATION ACCESS:    3418565  HIT:    3389740  MISS:      28825  HIT %:    99.1568  MISS %:    0.84319   MPKI: 1.153
DTLB PREFETCH  REQUESTED:          0  ISSUED:          0  USEFUL:          0  USELESS:          0
DTLB USEFUL LOAD PREFETCHES:          0 PREFETCH ISSUED TO LOWER LEVEL:          0  ACCURACY: -nan
DTLB TIMELY PREFETCHES:          0 LATE PREFETCHES: 0 DROPPED PREFETCHES: 0
DTLB PREFETCHES SAME FILL-ORIGIN LEVEL: 0 DIFFERENT FILL-ORIGIN LEVEL: 0
DTLB AVERAGE MISS LATENCY: 119.054 cycles
DTLB RQ	ACCESS:    5480705	FORWARD:          0	MERGED:    2049783	TO_CACHE:    3430922

STLB TOTAL     ACCESS:      28825  HIT:      13183  MISS:      15642  HIT %:    45.7346  MISS %:    54.2654   MPKI: 0.62568
STLB LOAD TRANSLATION ACCESS:      28825  HIT:      13183  MISS:      15642  HIT %:    45.7346  MISS %:    54.2654   MPKI: 0.62568
STLB PREFETCH  REQUESTED:          0  ISSUED:          0  USEFUL:          0  USELESS:          0
STLB USEFUL LOAD PREFETCHES:          0 PREFETCH ISSUED TO LOWER LEVEL:          0  ACCURACY: -nan
STLB TIMELY PREFETCHES:          0 LATE PREFETCHES: 0 DROPPED PREFETCHES: 0
STLB PREFETCHES SAME FILL-ORIGIN LEVEL: 0 DIFFERENT FILL-ORIGIN LEVEL: 0
STLB AVERAGE MISS LATENCY: 199.117 cycles
STLB RQ	ACCESS:      28825	FORWARD:          0	MERGED:          0	TO_CACHE:      28825

STLB Hit, L1D data hit: 0
STLB Hit, L2C data hit: 0
STLB Hit, LLC data hit: 0
STLB Hit, LLC data miss: 0
STLB STLB hints to L2: 0
L1D TOTAL     ACCESS:    5400094  HIT:    3748861  MISS:    1651233  HIT %:    69.4221  MISS %:    30.5779   MPKI: 66.0493
L1D LOAD      ACCESS:    1327475  HIT:    1077269  MISS:     250206  HIT %:    81.1517  MISS %:    18.8483   MPKI: 10.0082
L1D RFO       ACCESS:    4072619  HIT:    2671592  MISS:    1401027  HIT %:    65.5989  MISS %:    34.4011   MPKI: 56.0411
L1D PREFETCH  REQUESTED:          0  ISSUED:          0  USEFUL:          0  USELESS:          0
L1D USEFUL LOAD PREFETCHES:          0 PREFETCH ISSUED TO LOWER LEVEL:          0  ACCURACY: -nan
L1D TIMELY PREFETCHES:          0 LATE PREFETCHES: 0 DROPPED PREFETCHES: 0
L1D PREFETCHES SAME FILL-ORIGIN LEVEL: 0 DIFFERENT FILL-ORIGIN LEVEL: 0
L1D AVERAGE MISS LATENCY: 340.888 cycles
L1D RQ	ACCESS:    4353864	FORWARD:          0	MERGED:    2594921	TO_CACHE:    1386447
L1D WQ	ACCESS:    4349460	FORWARD:     372496	MERGED:     255202	TO_CACHE:    4094258

L1D UNIQUE REGIONS ACCESSED: 0
L1D REGIONS CONFLICTS: 0
L1D Cross Page Prefetch Requests: 0
L1D Same Page Prefetch Requests: 0
L1D ROI Sum of L1D PQ occupancy: 0
L1D PREFETCHES PUSHED FROM L2C: 0
L1I TOTAL     ACCESS:    4427299  HIT:    4427299  MISS:          0  HIT %:        100  MISS %:          0   MPKI: 0
L1I LOAD      ACCESS:    4427299  HIT:    4427299  MISS:          0  HIT %:        100  MISS %:          0   MPKI: 0
L1I PREFETCH  REQUESTED:          0  ISSUED:          0  USEFUL:          0  USELESS:          0
L1I USEFUL LOAD PREFETCHES:          0 PREFETCH ISSUED TO LOWER LEVEL:          0  ACCURACY: -nan
L1I TIMELY PREFETCHES:          0 LATE PREFETCHES: 0 DROPPED PREFETCHES: 0
L1I PREFETCHES SAME FILL-ORIGIN LEVEL: 0 DIFFERENT FILL-ORIGIN LEVEL: 0
L1I AVERAGE MISS LATENCY: -nan cycles
L1I RQ	ACCESS:    6446870	FORWARD:          0	MERGED:    2019571	TO_CACHE:    4427299

BTB TOTAL     ACCESS:     396212  HIT:     396206  MISS:          6  HIT %:    99.9985  MISS %: 0.00151434   MPKI: 0.00024
BTB BRANCH_DIRECT_JUMP	ACCESS:      52070  HIT:      52069  MISS:          1
BTB BRANCH_INDIRECT	ACCESS:          0  HIT:          0  MISS:          0
BTB BRANCH_CONDITIONAL	ACCESS:     344142  HIT:     344137  MISS:          5
BTB BRANCH_DIRECT_CALL	ACCESS:          0  HIT:          0  MISS:          0
BTB BRANCH_INDIRECT_CALL	ACCESS:          0  HIT:          0  MISS:          0
BTB BRANCH_RETURN	ACCESS:          0  HIT:          0  MISS:          0
BTB BRANCH_OTHER ACCESS:          0  HIT:          0  MISS:          0

L2C TOTAL     ACCESS:    3577662  HIT:    2568720  MISS:    1008942  HIT %:    71.7988  MISS %:    28.2012   MPKI: 40.3577
L2C LOAD      ACCESS:     250206  HIT:      92949  MISS:     157257  HIT %:     37.149  MISS %:     62.851   MPKI: 6.29028
L2C DATA LOAD MPKI: 6.29028
L2C INSTRUCTION LOAD MPKI: 0
L2C RFO       ACCESS:    1401027  HIT:     644306  MISS:     756721  HIT %:    45.9881  MISS %:    54.0119   MPKI: 30.2688
L2C PREFETCH  ACCESS:     509751  HIT:     416794  MISS:      92957  HIT %:    81.7642  MISS %:    18.2358   MPKI: 3.71828
AGUS PREFETCH L1 MISS: 0
L2C DATA PREFETCH MPKI: 3.71828
L2C INSTRUCTION PREFETCH MPKI: 0
L2C WRITEBACK ACCESS:    1401034  HIT:    1401004  MISS:         30  HIT %:    99.9979  MISS %: 0.00214128   MPKI: 0.0012
L2C LOAD TRANSLATION ACCESS:      15644  HIT:      13667  MISS:       1977  HIT %:    87.3626  MISS %:    12.6374   MPKI: 0.07908
L2C PREFETCH  REQUESTED:     974555  ISSUED:     938723  USEFUL:      92940  USELESS:         21
L2C USEFUL LOAD PREFETCHES:      92940 PREFETCH ISSUED TO LOWER LEVEL:     188775  ACCURACY: 49.2332
L2C TIMELY PREFETCHES:      92940 LATE PREFETCHES: 31745 DROPPED PREFETCHES: 0
L2C PREFETCHES SAME FILL-ORIGIN LEVEL: 124702 DIFFERENT FILL-ORIGIN LEVEL: 64073
L2C AVERAGE MISS LATENCY: 577.454 cycles
L2C RQ	ACCESS:    1666893	FORWARD:          0	MERGED:          0	TO_CACHE:    1666893
L2C WQ	ACCESS:    1401034	FORWARD:          0	MERGED:          0	TO_CACHE:    1401034
L2C PQ	ACCESS:     938723	FORWARD:          0	MERGED:     154736	TO_CACHE:     783987

L2C Instructions Evicting Data 0
L2C Translations Evicting Data 1975
L2C Data Evicting Data 1004952
L2C Instructions Evicting Instructions 0
L2C Translations Evicting Instructions 0
L2C Data Evicting Instructions 0
L2C Instructions Evicting Translations 0
L2C Translations Evicting Translations 2
L2C Data Evicting Translations 1983
L2C Dense regions hint from L2: 0
PSCL5 TOTAL     ACCESS:      15642  HIT:      15642  MISS:          0  HIT %:        100  MISS %:          0   MPKI: 0
PSCL5 LOAD TRANSLATION ACCESS:      15642  HIT:      15642  MISS:          0  HIT %:        100  MISS %:          0   MPKI: 0
PSCL5 PREFETCH  REQUESTED:          0  ISSUED:          0  USEFUL:          0  USELESS:          0
PSCL5 USEFUL LOAD PREFETCHES:          0 PREFETCH ISSUED TO LOWER LEVEL:          0  ACCURACY: -nan
PSCL5 TIMELY PREFETCHES:          0 LATE PREFETCHES: 0 DROPPED PREFETCHES: 0
PSCL5 PREFETCHES SAME FILL-ORIGIN LEVEL: 0 DIFFERENT FILL-ORIGIN LEVEL: 0

PSCL4 TOTAL     ACCESS:      15642  HIT:      15642  MISS:          0  HIT %:        100  MISS %:          0   MPKI: 0
PSCL4 LOAD TRANSLATION ACCESS:      15642  HIT:      15642  MISS:          0  HIT %:        100  MISS %:          0   MPKI: 0
PSCL4 PREFETCH  REQUESTED:          0  ISSUED:          0  USEFUL:          0  USELESS:          0
PSCL4 USEFUL LOAD PREFETCHES:          0 PREFETCH ISSUED TO LOWER LEVEL:          0  ACCURACY: -nan
PSCL4 TIMELY PREFETCHES:          0 LATE PREFETCHES: 0 DROPPED PREFETCHES: 0
PSCL4 PREFETCHES SAME FILL-ORIGIN LEVEL: 0 DIFFERENT FILL-ORIGIN LEVEL: 0

PSCL3 TOTAL     ACCESS:      15642  HIT:      15642  MISS:          0  HIT %:        100  MISS %:          0   MPKI: 0
PSCL3 LOAD TRANSLATION ACCESS:      15642  HIT:      15642  MISS:          0  HIT %:        100  MISS %:          0   MPKI: 0
PSCL3 PREFETCH  REQUESTED:          0  ISSUED:          0  USEFUL:          0  USELESS:          0
PSCL3 USEFUL LOAD PREFETCHES:          0 PREFETCH ISSUED TO LOWER LEVEL:          0  ACCURACY: -nan
PSCL3 TIMELY PREFETCHES:          0 LATE PREFETCHES: 0 DROPPED PREFETCHES: 0
PSCL3 PREFETCHES SAME FILL-ORIGIN LEVEL: 0 DIFFERENT FILL-ORIGIN LEVEL: 0

PSCL2 TOTAL     ACCESS:      15642  HIT:      15625  MISS:         17  HIT %:    99.8913  MISS %:   0.108682   MPKI: 0.00068
PSCL2 LOAD TRANSLATION ACCESS:      15642  HIT:      15625  MISS:         17  HIT %:    99.8913  MISS %:   0.108682   MPKI: 0.00068
PSCL2 PREFETCH  REQUESTED:          0  ISSUED:          0  USEFUL:          0  USELESS:          0
PSCL2 USEFUL LOAD PREFETCHES:          0 PREFETCH ISSUED TO LOWER LEVEL:          0  ACCURACY: -nan
PSCL2 TIMELY PREFETCHES:          0 LATE PREFETCHES: 0 DROPPED PREFETCHES: 0
PSCL2 PREFETCHES SAME FILL-ORIGIN LEVEL: 0 DIFFERENT FILL-ORIGIN LEVEL: 0

LLC TOTAL     ACCESS:    1802658  HIT:     799917  MISS:    1002741  HIT %:    44.3743  MISS %:    55.6257   MPKI: 40.1096
LLC LOAD      ACCESS:     125512  HIT:       4777  MISS:     120735  HIT %:    3.80601  MISS %:     96.194   MPKI: 4.8294
LLC RFO       ACCESS:     756707  HIT:       6189  MISS:     750518  HIT %:   0.817886  MISS %:    99.1821   MPKI: 30.0207
LLC PREFETCH  ACCESS:     160710  HIT:      31229  MISS:     129481  HIT %:    19.4319  MISS %:    80.5681   MPKI: 5.17924
AGUS PREFETCH L1 MISS: 0
LLC WRITEBACK ACCESS:     757752  HIT:     757722  MISS:         30  HIT %:     99.996  MISS %: 0.00395908   MPKI: 0.0012
LLC LOAD TRANSLATION ACCESS:       1977  HIT:          0  MISS:       1977  HIT %:          0  MISS %:        100   MPKI: 0.07908
LLC PREFETCH  REQUESTED:          0  ISSUED:          0  USEFUL:       4776  USELESS:     123325
LLC USEFUL LOAD PREFETCHES:       4776 PREFETCH ISSUED TO LOWER LEVEL:     136552  ACCURACY: 3.49757
LLC TIMELY PREFETCHES:       4776 LATE PREFETCHES: 7071 DROPPED PREFETCHES: 0
LLC PREFETCHES SAME FILL-ORIGIN LEVEL: 43193 DIFFERENT FILL-ORIGIN LEVEL: 0
LLC AVERAGE MISS LATENCY: 576.496 cycles
LLC RQ	ACCESS:     884226	FORWARD:          0	MERGED:          0	TO_CACHE:     884212
LLC WQ	ACCESS:     757752	FORWARD:         14	MERGED:          0	TO_CACHE:     757752
LLC PQ	ACCESS:     188775	FORWARD:          0	MERGED:       1060	TO_CACHE:     187715

LLC Dense regions hint to LLC: 0

RAW hits: 1967786
Reg RAW dependents: 19477625
Loads Generated: 6321666
Loads sent to L1D: 4353864
Stores Generated: 4349455
Stores sent to L1D: 4349460
Major fault: 0 Minor fault: 19681
Allocated PAGES: 19681
Average branch resolution latency (in cycles): 72.6117
CPU 0 L2C Region based offset prefetcher final stats

DRAM Statistics
 CHANNEL 0
 RQ ROW_BUFFER_HIT:      86490  ROW_BUFFER_MISS:     916221
 DBUS_CONGESTED:          0
 WQ ROW_BUFFER_HIT:     162737  ROW_BUFFER_MISS:     588622  FULL:          0

 AVG_CONGESTED_CYCLE: -
 All warmup complete: 2
Channel 0 Bank busy for read cycles: 0
Channel 0 Bank busy for write cycles: 0
Channel 0
Rank 0
0banks busy for read cycles: 12522
0banks busy for write cycles: 0
1banks busy for read cycles: 1214881
1banks busy for write cycles: 76616
2banks busy for read cycles: 512357
2banks busy for write cycles: 76616
3banks busy for read cycles: 654716
3banks busy for write cycles: 76616
4banks busy for read cycles: 3545098
4banks busy for write cycles: 76616
5banks busy for read cycles: 4609614
5banks busy for write cycles: 76616
6banks busy for read cycles: 4773714
6banks busy for write cycles: 76703
7banks busy for read cycles: 5630638
7banks busy for write cycles: 830219
8banks busy for read cycles: 6405717
8banks busy for write cycles: 14786216

CPU 0 Branch Prediction Accuracy: 97.8416% MPKI: 0.34208 Average ROB Occupancy at Mispredict: 249.2
Branch types
NOT_BRANCH: 24604034 98.4161%
BRANCH_DIRECT_JUMP: 52070 0.20828%
BRANCH_INDIRECT: 0 0%
BRANCH_CONDITIONAL: 344150 1.3766%
BRANCH_DIRECT_CALL: 0 0%
BRANCH_INDIRECT_CALL: 0 0%
BRANCH_RETURN: 0 0%
BRANCH_OTHER: 0 0%

DRAM PAGES: 1048576
Allocated PAGES: 19681
