*** ChampSim Multicore Out-of-Order Simulator ***

Warmup Instructions: 25000000
Simulation Instructions: 25000000
Number of CPUs: 1
LLC sets: 2048
LLC ways: 16
Off-chip DRAM Size: 4096 MB Channels: 1 Width: 64-bit Data Rate: 6400 MT/s
CPU 0 runs ../../traces/trace1.champsimtrace.xz
.xz
BTB has LRU replacement policy
ITLB has LRU replacement policy
DTLB has LRU replacement policy
STLB has LRU replacement policy
L1I has LRU replacement policy
L1D has LRU replacement policy
CPU 0 Region based L2 offset prefetcher
L2C has LRU replacement policy
LLC has LRU replacement policy
Heartbeat CPU 0 instructions: 10000000 cycles: 2548688 heartbeat IPC: 3.92359 cumulative IPC: 3.92359 (Simulation time: 0 hr 0 min 16 sec) 
Heartbeat CPU 0 instructions: 20000001 cycles: 5092847 heartbeat IPC: 3.93057 cumulative IPC: 3.92708 (Simulation time: 0 hr 0 min 28 sec) 

Warmup complete CPU 0 instructions: 25000008 cycles: 6361578 (Simulation time: 0 hr 0 min 34 sec) 

Heartbeat CPU 0 instructions: 30000007 cycles: 15344354 heartbeat IPC: 0.975467 cumulative IPC: 0.556621 (Simulation time: 0 hr 1 min 0 sec) 
Heartbeat CPU 0 instructions: 40000002 cycles: 32869996 heartbeat IPC: 0.570592 cumulative IPC: 0.565858 (Simulation time: 0 hr 1 min 50 sec) 
Heartbeat CPU 0 instructions: 50000006 cycles: 49798182 heartbeat IPC: 0.590731 cumulative IPC: 0.575551 (Simulation time: 0 hr 2 min 37 sec) 
Finished CPU 0 instructions: 25000004 cycles: 43436618 cumulative IPC: 0.575551 (Simulation time: 0 hr 2 min 37 sec) 

ChampSim completed all CPUs

Region of Interest Statistics

CPU 0 cumulative IPC: 0.575551 instructions: 25000004 cycles: 43436618
ITLB TOTAL     ACCESS:    3459773  HIT:    3459773  MISS:          0  HIT %:        100  MISS %:          0   MPKI: 0
ITLB LOAD TRANSLATION ACCESS:    3459773  HIT:    3459773  MISS:          0  HIT %:        100  MISS %:          0   MPKI: 0
ITLB PREFETCH  REQUESTED:          0  ISSUED:          0  USEFUL:          0  USELESS:          0
ITLB USEFUL LOAD PREFETCHES:          0 PREFETCH ISSUED TO LOWER LEVEL:          0  ACCURACY: -nan
ITLB TIMELY PREFETCHES:          0 LATE PREFETCHES: 0 DROPPED PREFETCHES: 0
ITLB PREFETCHES SAME FILL-ORIGIN LEVEL: 0 DIFFERENT FILL-ORIGIN LEVEL: 0
ITLB AVERAGE MISS LATENCY: -nan cycles
ITLB RQ ACCESS:    4427742      FORWARD:          0     MERGED:     967969      TO_CACHE:    3459773

DTLB TOTAL     ACCESS:    3420982  HIT:    3392157  MISS:      28825  HIT %:    99.1574  MISS %:   0.842594   MPKI: 1.153
DTLB LOAD TRANSLATION ACCESS:    3420982  HIT:    3392157  MISS:      28825  HIT %:    99.1574  MISS %:   0.842594   MPKI: 1.153
DTLB PREFETCH  REQUESTED:          0  ISSUED:          0  USEFUL:          0  USELESS:          0
DTLB USEFUL LOAD PREFETCHES:          0 PREFETCH ISSUED TO LOWER LEVEL:          0  ACCURACY: -nan
DTLB TIMELY PREFETCHES:          0 LATE PREFETCHES: 0 DROPPED PREFETCHES: 0
DTLB PREFETCHES SAME FILL-ORIGIN LEVEL: 0 DIFFERENT FILL-ORIGIN LEVEL: 0
DTLB AVERAGE MISS LATENCY: 119.661 cycles
DTLB RQ ACCESS:    5488220      FORWARD:          0     MERGED:    2055099      TO_CACHE:    3433121

STLB TOTAL     ACCESS:      28825  HIT:      13183  MISS:      15642  HIT %:    45.7346  MISS %:    54.2654   MPKI: 0.62568
STLB LOAD TRANSLATION ACCESS:      28825  HIT:      13183  MISS:      15642  HIT %:    45.7346  MISS %:    54.2654   MPKI: 0.62568
STLB PREFETCH  REQUESTED:          0  ISSUED:          0  USEFUL:          0  USELESS:          0
STLB USEFUL LOAD PREFETCHES:          0 PREFETCH ISSUED TO LOWER LEVEL:          0  ACCURACY: -nan
STLB TIMELY PREFETCHES:          0 LATE PREFETCHES: 0 DROPPED PREFETCHES: 0
STLB PREFETCHES SAME FILL-ORIGIN LEVEL: 0 DIFFERENT FILL-ORIGIN LEVEL: 0
STLB AVERAGE MISS LATENCY: 200.511 cycles
STLB RQ ACCESS:      28825      FORWARD:          0     MERGED:          0      TO_CACHE:      28825

STLB Hit, L1D data hit: 0
STLB Hit, L2C data hit: 0
STLB Hit, LLC data hit: 0
STLB Hit, LLC data miss: 0
STLB STLB hints to L2: 0
L1D TOTAL     ACCESS:    5407427  HIT:    3756174  MISS:    1651253  HIT %:    69.4632  MISS %:    30.5368   MPKI: 66.0501
L1D LOAD      ACCESS:    1330270  HIT:    1080063  MISS:     250207  HIT %:    81.1913  MISS %:    18.8087   MPKI: 10.0083
L1D RFO       ACCESS:    4077157  HIT:    2676111  MISS:    1401046  HIT %:    65.6367  MISS %:    34.3633   MPKI: 56.0418
L1D PREFETCH  REQUESTED:          0  ISSUED:          0  USEFUL:          0  USELESS:          0
L1D USEFUL LOAD PREFETCHES:          0 PREFETCH ISSUED TO LOWER LEVEL:          0  ACCURACY: -nan
L1D TIMELY PREFETCHES:          0 LATE PREFETCHES: 0 DROPPED PREFETCHES: 0
L1D PREFETCHES SAME FILL-ORIGIN LEVEL: 0 DIFFERENT FILL-ORIGIN LEVEL: 0
L1D AVERAGE MISS LATENCY: 340.311 cycles
L1D RQ  ACCESS:    4352179      FORWARD:          0     MERGED:    2596343      TO_CACHE:    1389581
L1D WQ  ACCESS:    4349460      FORWARD:     366255     MERGED:     250821      TO_CACHE:    4098639

L1D UNIQUE REGIONS ACCESSED: 0
L1D REGIONS CONFLICTS: 0
L1D Cross Page Prefetch Requests: 0
L1D Same Page Prefetch Requests: 0
L1D ROI Sum of L1D PQ occupancy: 0
L1D PREFETCHES PUSHED FROM L2C: 0
L1I TOTAL     ACCESS:    4427741  HIT:    4427741  MISS:          0  HIT %:        100  MISS %:          0   MPKI: 0
L1I LOAD      ACCESS:    4427741  HIT:    4427741  MISS:          0  HIT %:        100  MISS %:          0   MPKI: 0
L1I PREFETCH  REQUESTED:          0  ISSUED:          0  USEFUL:          0  USELESS:          0
L1I USEFUL LOAD PREFETCHES:          0 PREFETCH ISSUED TO LOWER LEVEL:          0  ACCURACY: -nan
L1I TIMELY PREFETCHES:          0 LATE PREFETCHES: 0 DROPPED PREFETCHES: 0
L1I PREFETCHES SAME FILL-ORIGIN LEVEL: 0 DIFFERENT FILL-ORIGIN LEVEL: 0
L1I AVERAGE MISS LATENCY: -nan cycles
L1I RQ  ACCESS:    6446057      FORWARD:          0     MERGED:    2018315      TO_CACHE:    4427742

BTB TOTAL     ACCESS:     396212  HIT:     396206  MISS:          6  HIT %:    99.9985  MISS %: 0.00151434   MPKI: 0.00024
BTB BRANCH_DIRECT_JUMP  ACCESS:      52070  HIT:      52069  MISS:          1
BTB BRANCH_INDIRECT     ACCESS:          0  HIT:          0  MISS:          0
BTB BRANCH_CONDITIONAL  ACCESS:     344142  HIT:     344137  MISS:          5
BTB BRANCH_DIRECT_CALL  ACCESS:          0  HIT:          0  MISS:          0
BTB BRANCH_INDIRECT_CALL        ACCESS:          0  HIT:          0  MISS:          0
BTB BRANCH_RETURN       ACCESS:          0  HIT:          0  MISS:          0
BTB BRANCH_OTHER ACCESS:          0  HIT:          0  MISS:          0

L2C TOTAL     ACCESS:    3576280  HIT:    2567677  MISS:    1008603  HIT %:    71.7974  MISS %:    28.2026   MPKI: 40.3441
L2C LOAD      ACCESS:     250207  HIT:      92565  MISS:     157642  HIT %:    36.9954  MISS %:    63.0046   MPKI: 6.30568
L2C DATA LOAD MPKI: 6.30568
L2C INSTRUCTION LOAD MPKI: 0
L2C RFO       ACCESS:    1401046  HIT:     644662  MISS:     756384  HIT %:    46.0129  MISS %:    53.9871   MPKI: 30.2554
L2C PREFETCH  ACCESS:     508332  HIT:     415762  MISS:      92570  HIT %:    81.7895  MISS %:    18.2105   MPKI: 3.7028
AGUS PREFETCH L1 MISS: 0
L2C DATA PREFETCH MPKI: 3.7028
L2C INSTRUCTION PREFETCH MPKI: 0
L2C WRITEBACK ACCESS:    1401051  HIT:    1401021  MISS:         30  HIT %:    99.9979  MISS %: 0.00214125   MPKI: 0.0012
L2C LOAD TRANSLATION ACCESS:      15644  HIT:      13667  MISS:       1977  HIT %:    87.3626  MISS %:    12.6374   MPKI: 0.07908
L2C PREFETCH  REQUESTED:     973442  ISSUED:     937939  USEFUL:      92556  USELESS:         18
L2C USEFUL LOAD PREFETCHES:      92556 PREFETCH ISSUED TO LOWER LEVEL:     188278  ACCURACY: 49.1592
L2C TIMELY PREFETCHES:      92556 LATE PREFETCHES: 32004 DROPPED PREFETCHES: 0
L2C PREFETCHES SAME FILL-ORIGIN LEVEL: 124574 DIFFERENT FILL-ORIGIN LEVEL: 63704
L2C AVERAGE MISS LATENCY: 576.647 cycles
L2C RQ  ACCESS:    1666908      FORWARD:          0     MERGED:          0      TO_CACHE:    1666908
L2C WQ  ACCESS:    1401051      FORWARD:          0     MERGED:          0      TO_CACHE:    1401051
L2C PQ  ACCESS:     937939      FORWARD:          0     MERGED:     155913      TO_CACHE:     782026

L2C Instructions Evicting Data 0
L2C Translations Evicting Data 1975
L2C Data Evicting Data 1004613
L2C Instructions Evicting Instructions 0
L2C Translations Evicting Instructions 0
L2C Data Evicting Instructions 0
L2C Instructions Evicting Translations 0
L2C Translations Evicting Translations 2
L2C Data Evicting Translations 1983
L2C Dense regions hint from L2: 0
PSCL5 TOTAL     ACCESS:      15642  HIT:      15642  MISS:          0  HIT %:        100  MISS %:          0   MPKI: 0
PSCL5 LOAD TRANSLATION ACCESS:      15642  HIT:      15642  MISS:          0  HIT %:        100  MISS %:          0   MPKI: 0
PSCL5 PREFETCH  REQUESTED:          0  ISSUED:          0  USEFUL:          0  USELESS:          0
PSCL5 USEFUL LOAD PREFETCHES:          0 PREFETCH ISSUED TO LOWER LEVEL:          0  ACCURACY: -nan
PSCL5 TIMELY PREFETCHES:          0 LATE PREFETCHES: 0 DROPPED PREFETCHES: 0
PSCL5 PREFETCHES SAME FILL-ORIGIN LEVEL: 0 DIFFERENT FILL-ORIGIN LEVEL: 0

PSCL4 TOTAL     ACCESS:      15642  HIT:      15642  MISS:          0  HIT %:        100  MISS %:          0   MPKI: 0
PSCL4 LOAD TRANSLATION ACCESS:      15642  HIT:      15642  MISS:          0  HIT %:        100  MISS %:          0   MPKI: 0
PSCL4 PREFETCH  REQUESTED:          0  ISSUED:          0  USEFUL:          0  USELESS:          0
PSCL4 USEFUL LOAD PREFETCHES:          0 PREFETCH ISSUED TO LOWER LEVEL:          0  ACCURACY: -nan
PSCL4 TIMELY PREFETCHES:          0 LATE PREFETCHES: 0 DROPPED PREFETCHES: 0
PSCL4 PREFETCHES SAME FILL-ORIGIN LEVEL: 0 DIFFERENT FILL-ORIGIN LEVEL: 0

PSCL3 TOTAL     ACCESS:      15642  HIT:      15642  MISS:          0  HIT %:        100  MISS %:          0   MPKI: 0
PSCL3 LOAD TRANSLATION ACCESS:      15642  HIT:      15642  MISS:          0  HIT %:        100  MISS %:          0   MPKI: 0
PSCL3 PREFETCH  REQUESTED:          0  ISSUED:          0  USEFUL:          0  USELESS:          0
PSCL3 USEFUL LOAD PREFETCHES:          0 PREFETCH ISSUED TO LOWER LEVEL:          0  ACCURACY: -nan
PSCL3 TIMELY PREFETCHES:          0 LATE PREFETCHES: 0 DROPPED PREFETCHES: 0
PSCL3 PREFETCHES SAME FILL-ORIGIN LEVEL: 0 DIFFERENT FILL-ORIGIN LEVEL: 0

PSCL2 TOTAL     ACCESS:      15642  HIT:      15625  MISS:         17  HIT %:    99.8913  MISS %:   0.108682   MPKI: 0.00068
PSCL2 LOAD TRANSLATION ACCESS:      15642  HIT:      15625  MISS:         17  HIT %:    99.8913  MISS %:   0.108682   MPKI: 0.00068
PSCL2 PREFETCH  REQUESTED:          0  ISSUED:          0  USEFUL:          0  USELESS:          0
PSCL2 USEFUL LOAD PREFETCHES:          0 PREFETCH ISSUED TO LOWER LEVEL:          0  ACCURACY: -nan
PSCL2 TIMELY PREFETCHES:          0 LATE PREFETCHES: 0 DROPPED PREFETCHES: 0
PSCL2 PREFETCHES SAME FILL-ORIGIN LEVEL: 0 DIFFERENT FILL-ORIGIN LEVEL: 0

LLC TOTAL     ACCESS:    1801685  HIT:     798932  MISS:    1002753  HIT %:    44.3436  MISS %:    55.6564   MPKI: 40.1101
LLC LOAD      ACCESS:     125638  HIT:       4859  MISS:     120779  HIT %:    3.86746  MISS %:    96.1325   MPKI: 4.83116
LLC RFO       ACCESS:     756371  HIT:       5842  MISS:     750529  HIT %:   0.772372  MISS %:    99.2276   MPKI: 30.0212
LLC PREFETCH  ACCESS:     160361  HIT:      30923  MISS:     129438  HIT %:    19.2834  MISS %:    80.7166   MPKI: 5.17752
AGUS PREFETCH L1 MISS: 0
LLC WRITEBACK ACCESS:     757338  HIT:     757308  MISS:         30  HIT %:     99.996  MISS %: 0.00396124   MPKI: 0.0012
LLC LOAD TRANSLATION ACCESS:       1977  HIT:          0  MISS:       1977  HIT %:          0  MISS %:        100   MPKI: 0.07908
LLC PREFETCH  REQUESTED:          0  ISSUED:          0  USEFUL:       4858  USELESS:     123167
LLC USEFUL LOAD PREFETCHES:       4858 PREFETCH ISSUED TO LOWER LEVEL:     136472  ACCURACY: 3.5597
LLC TIMELY PREFETCHES:       4858 LATE PREFETCHES: 7034 DROPPED PREFETCHES: 0
LLC PREFETCHES SAME FILL-ORIGIN LEVEL: 42702 DIFFERENT FILL-ORIGIN LEVEL: 0
LLC AVERAGE MISS LATENCY: 575.189 cycles
LLC RQ  ACCESS:     884010      FORWARD:          0     MERGED:          0      TO_CACHE:     883997
LLC WQ  ACCESS:     757338      FORWARD:         13     MERGED:          0      TO_CACHE:     757338
LLC PQ  ACCESS:     188278      FORWARD:          0     MERGED:       1033      TO_CACHE:     187245

LLC Dense regions hint to LLC: 0

RAW hits: 1969476
Reg RAW dependents: 19477926
Loads Generated: 6321679
Loads sent to L1D: 4352179
Stores Generated: 4349455
Stores sent to L1D: 4349460
Major fault: 0 Minor fault: 19681
Allocated PAGES: 19681
Average branch resolution latency (in cycles): 73.8073
CPU 0 L2C Region based offset prefetcher final stats

DRAM Statistics
 CHANNEL 0
 RQ ROW_BUFFER_HIT:      86056  ROW_BUFFER_MISS:     916667
 DBUS_CONGESTED:          0
 WQ ROW_BUFFER_HIT:     163220  ROW_BUFFER_MISS:     588165  FULL:          0

 AVG_CONGESTED_CYCLE: -
 All warmup complete: 2
Channel 0 Bank busy for read cycles: 0
Channel 0 Bank busy for write cycles: 0
Channel 0
Rank 0
0banks busy for read cycles: 12580
0banks busy for write cycles: 0
1banks busy for read cycles: 1204473
1banks busy for write cycles: 76622
2banks busy for read cycles: 530801
2banks busy for write cycles: 76622
3banks busy for read cycles: 664674
3banks busy for write cycles: 76622
4banks busy for read cycles: 3548113
4banks busy for write cycles: 76622
5banks busy for read cycles: 4626815
5banks busy for write cycles: 76622
6banks busy for read cycles: 4774717
6banks busy for write cycles: 76697
7banks busy for read cycles: 5616668
7banks busy for write cycles: 829603
8banks busy for read cycles: 6392742
8banks busy for write cycles: 14775626

CPU 0 Branch Prediction Accuracy: 97.8416% MPKI: 0.34208 Average ROB Occupancy at Mispredict: 249.567
Branch types
NOT_BRANCH: 24604096 98.4164%
BRANCH_DIRECT_JUMP: 52070 0.20828%
BRANCH_INDIRECT: 0 0%
BRANCH_CONDITIONAL: 344150 1.3766%
BRANCH_DIRECT_CALL: 0 0%
BRANCH_INDIRECT_CALL: 0 0%
BRANCH_RETURN: 0 0%
BRANCH_OTHER: 0 0%

DRAM PAGES: 1048576
Allocated PAGES: 19681
