
*** ChampSim Multicore Out-of-Order Simulator ***

Warmup Instructions: 25000000
Simulation Instructions: 25000000
Number of CPUs: 1
LLC sets: 2048
LLC ways: 16
Off-chip DRAM Size: 4096 MB Channels: 1 Width: 64-bit Data Rate: 6400 MT/s
CPU 0 runs ../../traces/trace1.champsimtrace.xz
.xz
BTB has LRU replacement policy
ITLB has LRU replacement policy
DTLB has LRU replacement policy
STLB has LRU replacement policy
L1I has LRU replacement policy
L1D has LRU replacement policy
CPU 0 Region based L2 offset prefetcher
L2C has LRU replacement policy
LLC has LRU replacement policy
Heartbeat CPU 0 instructions: 10000000 cycles: 2548769 heartbeat IPC: 3.92346 cumulative IPC: 3.92346 (Simulation time: 0 hr 0 min 12 sec) 
Heartbeat CPU 0 instructions: 20000001 cycles: 5092981 heartbeat IPC: 3.93049 cumulative IPC: 3.92697 (Simulation time: 0 hr 0 min 24 sec) 

Warmup complete CPU 0 instructions: 25000008 cycles: 6361720 (Simulation time: 0 hr 0 min 30 sec) 

Heartbeat CPU 0 instructions: 30000007 cycles: 15361533 heartbeat IPC: 0.973848 cumulative IPC: 0.555567 (Simulation time: 0 hr 0 min 58 sec) 
Heartbeat CPU 0 instructions: 40000002 cycles: 32912962 heartbeat IPC: 0.569754 cumulative IPC: 0.564945 (Simulation time: 0 hr 1 min 50 sec) 
Heartbeat CPU 0 instructions: 50000000 cycles: 49836419 heartbeat IPC: 0.590896 cumulative IPC: 0.575047 (Simulation time: 0 hr 2 min 40 sec) 
Finished CPU 0 instructions: 25000004 cycles: 43474718 cumulative IPC: 0.575047 (Simulation time: 0 hr 2 min 40 sec) 

ChampSim completed all CPUs

Region of Interest Statistics

CPU 0 cumulative IPC: 0.575047 instructions: 25000004 cycles: 43474718
ITLB TOTAL     ACCESS:    3458401  HIT:    3458401  MISS:          0  HIT %:        100  MISS %:          0   MPKI: 0
ITLB LOAD TRANSLATION ACCESS:    3458401  HIT:    3458401  MISS:          0  HIT %:        100  MISS %:          0   MPKI: 0
ITLB PREFETCH  REQUESTED:          0  ISSUED:          0  USEFUL:          0  USELESS:          0
ITLB USEFUL LOAD PREFETCHES:          0 PREFETCH ISSUED TO LOWER LEVEL:          0  ACCURACY: -nan
ITLB TIMELY PREFETCHES:          0 LATE PREFETCHES: 0 DROPPED PREFETCHES: 0
ITLB PREFETCHES SAME FILL-ORIGIN LEVEL: 0 DIFFERENT FILL-ORIGIN LEVEL: 0
ITLB AVERAGE MISS LATENCY: -nan cycles
ITLB RQ	ACCESS:    4426173	FORWARD:          0	MERGED:     967773	TO_CACHE:    3458400

DTLB TOTAL     ACCESS:    3441927  HIT:    3413102  MISS:      28825  HIT %:    99.1625  MISS %:   0.837467   MPKI: 1.153
DTLB LOAD TRANSLATION ACCESS:    3441927  HIT:    3413102  MISS:      28825  HIT %:    99.1625  MISS %:   0.837467   MPKI: 1.153
DTLB PREFETCH  REQUESTED:          0  ISSUED:          0  USEFUL:          0  USELESS:          0
DTLB USEFUL LOAD PREFETCHES:          0 PREFETCH ISSUED TO LOWER LEVEL:          0  ACCURACY: -nan
DTLB TIMELY PREFETCHES:          0 LATE PREFETCHES: 0 DROPPED PREFETCHES: 0
DTLB PREFETCHES SAME FILL-ORIGIN LEVEL: 0 DIFFERENT FILL-ORIGIN LEVEL: 0
DTLB AVERAGE MISS LATENCY: 116.069 cycles
DTLB RQ	ACCESS:    5520981	FORWARD:          0	MERGED:    2067022	TO_CACHE:    3453959

STLB TOTAL     ACCESS:      28825  HIT:      13183  MISS:      15642  HIT %:    45.7346  MISS %:    54.2654   MPKI: 0.62568
STLB LOAD TRANSLATION ACCESS:      28825  HIT:      13183  MISS:      15642  HIT %:    45.7346  MISS %:    54.2654   MPKI: 0.62568
STLB PREFETCH  REQUESTED:          0  ISSUED:          0  USEFUL:          0  USELESS:          0
STLB USEFUL LOAD PREFETCHES:          0 PREFETCH ISSUED TO LOWER LEVEL:          0  ACCURACY: -nan
STLB TIMELY PREFETCHES:          0 LATE PREFETCHES: 0 DROPPED PREFETCHES: 0
STLB PREFETCHES SAME FILL-ORIGIN LEVEL: 0 DIFFERENT FILL-ORIGIN LEVEL: 0
STLB AVERAGE MISS LATENCY: 193.562 cycles
STLB RQ	ACCESS:      28825	FORWARD:          0	MERGED:          0	TO_CACHE:      28825

STLB Hit, L1D data hit: 0
STLB Hit, L2C data hit: 0
STLB Hit, LLC data hit: 0
STLB Hit, LLC data miss: 0
STLB STLB hints to L2: 0
L1D TOTAL     ACCESS:    5440175  HIT:    3788948  MISS:    1651227  HIT %:    69.6475  MISS %:    30.3525   MPKI: 66.0491
L1D LOAD      ACCESS:    1355043  HIT:    1104837  MISS:     250206  HIT %:    81.5352  MISS %:    18.4648   MPKI: 10.0082
L1D RFO       ACCESS:    4085132  HIT:    2684111  MISS:    1401021  HIT %:    65.7044  MISS %:    34.2956   MPKI: 56.0408
L1D PREFETCH  REQUESTED:          0  ISSUED:          0  USEFUL:          0  USELESS:          0
L1D USEFUL LOAD PREFETCHES:          0 PREFETCH ISSUED TO LOWER LEVEL:          0  ACCURACY: -nan
L1D TIMELY PREFETCHES:          0 LATE PREFETCHES: 0 DROPPED PREFETCHES: 0
L1D PREFETCHES SAME FILL-ORIGIN LEVEL: 0 DIFFERENT FILL-ORIGIN LEVEL: 0
L1D AVERAGE MISS LATENCY: 339.882 cycles
L1D RQ	ACCESS:    4369405	FORWARD:          0	MERGED:    2608120	TO_CACHE:    1414786
L1D WQ	ACCESS:    4349460	FORWARD:     346499	MERGED:     243265	TO_CACHE:    4106195

L1D UNIQUE REGIONS ACCESSED: 0
L1D REGIONS CONFLICTS: 0
L1D Cross Page Prefetch Requests: 0
L1D Same Page Prefetch Requests: 0
L1D ROI Sum of L1D PQ occupancy: 0
L1D PREFETCHES PUSHED FROM L2C: 0
L1I TOTAL     ACCESS:    4426173  HIT:    4426173  MISS:          0  HIT %:        100  MISS %:          0   MPKI: 0
L1I LOAD      ACCESS:    4426173  HIT:    4426173  MISS:          0  HIT %:        100  MISS %:          0   MPKI: 0
L1I PREFETCH  REQUESTED:          0  ISSUED:          0  USEFUL:          0  USELESS:          0
L1I USEFUL LOAD PREFETCHES:          0 PREFETCH ISSUED TO LOWER LEVEL:          0  ACCURACY: -nan
L1I TIMELY PREFETCHES:          0 LATE PREFETCHES: 0 DROPPED PREFETCHES: 0
L1I PREFETCHES SAME FILL-ORIGIN LEVEL: 0 DIFFERENT FILL-ORIGIN LEVEL: 0
L1I AVERAGE MISS LATENCY: -nan cycles
L1I RQ	ACCESS:    6446092	FORWARD:          0	MERGED:    2019919	TO_CACHE:    4426173

BTB TOTAL     ACCESS:     396212  HIT:     396206  MISS:          6  HIT %:    99.9985  MISS %: 0.00151434   MPKI: 0.00024
BTB BRANCH_DIRECT_JUMP	ACCESS:      52070  HIT:      52069  MISS:          1
BTB BRANCH_INDIRECT	ACCESS:          0  HIT:          0  MISS:          0
BTB BRANCH_CONDITIONAL	ACCESS:     344142  HIT:     344137  MISS:          5
BTB BRANCH_DIRECT_CALL	ACCESS:          0  HIT:          0  MISS:          0
BTB BRANCH_INDIRECT_CALL	ACCESS:          0  HIT:          0  MISS:          0
BTB BRANCH_RETURN	ACCESS:          0  HIT:          0  MISS:          0
BTB BRANCH_OTHER ACCESS:          0  HIT:          0  MISS:          0

L2C TOTAL     ACCESS:    3539314  HIT:    2530780  MISS:    1008534  HIT %:    71.5048  MISS %:    28.4952   MPKI: 40.3414
L2C LOAD      ACCESS:     250206  HIT:      89753  MISS:     160453  HIT %:    35.8716  MISS %:    64.1284   MPKI: 6.41812
L2C DATA LOAD MPKI: 6.41812
L2C INSTRUCTION LOAD MPKI: 0
L2C RFO       ACCESS:    1401021  HIT:     644706  MISS:     756315  HIT %:    46.0169  MISS %:    53.9831   MPKI: 30.2526
L2C PREFETCH  ACCESS:     471414  HIT:     381655  MISS:      89759  HIT %:    80.9596  MISS %:    19.0404   MPKI: 3.59036
AGUS PREFETCH L1 MISS: 0
L2C DATA PREFETCH MPKI: 3.59036
L2C INSTRUCTION PREFETCH MPKI: 0
L2C WRITEBACK ACCESS:    1401029  HIT:    1400999  MISS:         30  HIT %:    99.9979  MISS %: 0.00214128   MPKI: 0.0012
L2C LOAD TRANSLATION ACCESS:      15644  HIT:      13667  MISS:       1977  HIT %:    87.3626  MISS %:    12.6374   MPKI: 0.07908
L2C PREFETCH  REQUESTED:     926518  ISSUED:     896396  USEFUL:      89744  USELESS:         19
L2C USEFUL LOAD PREFETCHES:      89744 PREFETCH ISSUED TO LOWER LEVEL:     185655  ACCURACY: 48.3391
L2C TIMELY PREFETCHES:      89744 LATE PREFETCHES: 33595 DROPPED PREFETCHES: 0
L2C PREFETCHES SAME FILL-ORIGIN LEVEL: 123354 DIFFERENT FILL-ORIGIN LEVEL: 62301
L2C AVERAGE MISS LATENCY: 574.243 cycles
L2C RQ	ACCESS:    1666887	FORWARD:          0	MERGED:          0	TO_CACHE:    1666887
L2C WQ	ACCESS:    1401029	FORWARD:          0	MERGED:          0	TO_CACHE:    1401029
L2C PQ	ACCESS:     896396	FORWARD:          0	MERGED:     150838	TO_CACHE:     745558

L2C Instructions Evicting Data 0
L2C Translations Evicting Data 1975
L2C Data Evicting Data 1004544
L2C Instructions Evicting Instructions 0
L2C Translations Evicting Instructions 0
L2C Data Evicting Instructions 0
L2C Instructions Evicting Translations 0
L2C Translations Evicting Translations 2
L2C Data Evicting Translations 1983
L2C Dense regions hint from L2: 0
PSCL5 TOTAL     ACCESS:      15642  HIT:      15642  MISS:          0  HIT %:        100  MISS %:          0   MPKI: 0
PSCL5 LOAD TRANSLATION ACCESS:      15642  HIT:      15642  MISS:          0  HIT %:        100  MISS %:          0   MPKI: 0
PSCL5 PREFETCH  REQUESTED:          0  ISSUED:          0  USEFUL:          0  USELESS:          0
PSCL5 USEFUL LOAD PREFETCHES:          0 PREFETCH ISSUED TO LOWER LEVEL:          0  ACCURACY: -nan
PSCL5 TIMELY PREFETCHES:          0 LATE PREFETCHES: 0 DROPPED PREFETCHES: 0
PSCL5 PREFETCHES SAME FILL-ORIGIN LEVEL: 0 DIFFERENT FILL-ORIGIN LEVEL: 0

PSCL4 TOTAL     ACCESS:      15642  HIT:      15642  MISS:          0  HIT %:        100  MISS %:          0   MPKI: 0
PSCL4 LOAD TRANSLATION ACCESS:      15642  HIT:      15642  MISS:          0  HIT %:        100  MISS %:          0   MPKI: 0
PSCL4 PREFETCH  REQUESTED:          0  ISSUED:          0  USEFUL:          0  USELESS:          0
PSCL4 USEFUL LOAD PREFETCHES:          0 PREFETCH ISSUED TO LOWER LEVEL:          0  ACCURACY: -nan
PSCL4 TIMELY PREFETCHES:          0 LATE PREFETCHES: 0 DROPPED PREFETCHES: 0
PSCL4 PREFETCHES SAME FILL-ORIGIN LEVEL: 0 DIFFERENT FILL-ORIGIN LEVEL: 0

PSCL3 TOTAL     ACCESS:      15642  HIT:      15642  MISS:          0  HIT %:        100  MISS %:          0   MPKI: 0
PSCL3 LOAD TRANSLATION ACCESS:      15642  HIT:      15642  MISS:          0  HIT %:        100  MISS %:          0   MPKI: 0
PSCL3 PREFETCH  REQUESTED:          0  ISSUED:          0  USEFUL:          0  USELESS:          0
PSCL3 USEFUL LOAD PREFETCHES:          0 PREFETCH ISSUED TO LOWER LEVEL:          0  ACCURACY: -nan
PSCL3 TIMELY PREFETCHES:          0 LATE PREFETCHES: 0 DROPPED PREFETCHES: 0
PSCL3 PREFETCHES SAME FILL-ORIGIN LEVEL: 0 DIFFERENT FILL-ORIGIN LEVEL: 0

PSCL2 TOTAL     ACCESS:      15642  HIT:      15625  MISS:         17  HIT %:    99.8913  MISS %:   0.108682   MPKI: 0.00068
PSCL2 LOAD TRANSLATION ACCESS:      15642  HIT:      15625  MISS:         17  HIT %:    99.8913  MISS %:   0.108682   MPKI: 0.00068
PSCL2 PREFETCH  REQUESTED:          0  ISSUED:          0  USEFUL:          0  USELESS:          0
PSCL2 USEFUL LOAD PREFETCHES:          0 PREFETCH ISSUED TO LOWER LEVEL:          0  ACCURACY: -nan
PSCL2 TIMELY PREFETCHES:          0 LATE PREFETCHES: 0 DROPPED PREFETCHES: 0
PSCL2 PREFETCHES SAME FILL-ORIGIN LEVEL: 0 DIFFERENT FILL-ORIGIN LEVEL: 0

LLC TOTAL     ACCESS:    1800350  HIT:     797618  MISS:    1002732  HIT %:    44.3035  MISS %:    55.6965   MPKI: 40.1093
LLC LOAD      ACCESS:     126858  HIT:       5005  MISS:     121853  HIT %:    3.94536  MISS %:    96.0546   MPKI: 4.87412
LLC RFO       ACCESS:     756301  HIT:       5786  MISS:     750515  HIT %:   0.765039  MISS %:     99.235   MPKI: 30.0206
LLC PREFETCH  ACCESS:     157871  HIT:      29514  MISS:     128357  HIT %:     18.695  MISS %:     81.305   MPKI: 5.13428
AGUS PREFETCH L1 MISS: 0
LLC WRITEBACK ACCESS:     757343  HIT:     757313  MISS:         30  HIT %:     99.996  MISS %: 0.00396122   MPKI: 0.0012
LLC LOAD TRANSLATION ACCESS:       1977  HIT:          0  MISS:       1977  HIT %:          0  MISS %:        100   MPKI: 0.07908
LLC PREFETCH  REQUESTED:          0  ISSUED:          0  USEFUL:       5004  USELESS:     121631
LLC USEFUL LOAD PREFETCHES:       5004 PREFETCH ISSUED TO LOWER LEVEL:     135656  ACCURACY: 3.68874
LLC TIMELY PREFETCHES:       5004 LATE PREFETCHES: 7299 DROPPED PREFETCHES: 0
LLC PREFETCHES SAME FILL-ORIGIN LEVEL: 42070 DIFFERENT FILL-ORIGIN LEVEL: 0
LLC AVERAGE MISS LATENCY: 573.024 cycles
LLC RQ	ACCESS:     885166	FORWARD:          0	MERGED:          0	TO_CACHE:     885152
LLC WQ	ACCESS:     757343	FORWARD:         14	MERGED:          0	TO_CACHE:     757343
LLC PQ	ACCESS:     185655	FORWARD:          0	MERGED:       1115	TO_CACHE:     184540

LLC Dense regions hint to LLC: 0

RAW hits: 1952235
Reg RAW dependents: 19466533
Loads Generated: 6321649
Loads sent to L1D: 4369405
Stores Generated: 4349455
Stores sent to L1D: 4349460
Major fault: 0 Minor fault: 19681
Allocated PAGES: 19681
Average branch resolution latency (in cycles): 71.6895
CPU 0 L2C Region based offset prefetcher final stats

DRAM Statistics
 CHANNEL 0
 RQ ROW_BUFFER_HIT:      85899  ROW_BUFFER_MISS:     916803
 DBUS_CONGESTED:          0
 WQ ROW_BUFFER_HIT:     162424  ROW_BUFFER_MISS:     589015  FULL:          0

 AVG_CONGESTED_CYCLE: -
 All warmup complete: 2
Channel 0 Bank busy for read cycles: 0
Channel 0 Bank busy for write cycles: 0
Channel 0
Rank 0
0banks busy for read cycles: 12511
0banks busy for write cycles: 0
1banks busy for read cycles: 1207920
1banks busy for write cycles: 76674
2banks busy for read cycles: 526953
2banks busy for write cycles: 76674
3banks busy for read cycles: 676498
3banks busy for write cycles: 76674
4banks busy for read cycles: 3552593
4banks busy for write cycles: 76674
5banks busy for read cycles: 4655129
5banks busy for write cycles: 76674
6banks busy for read cycles: 4825671
6banks busy for write cycles: 76741
7banks busy for read cycles: 5667509
7banks busy for write cycles: 829827
8banks busy for read cycles: 6285882
8banks busy for write cycles: 14774115

CPU 0 Branch Prediction Accuracy: 97.8416% MPKI: 0.34208 Average ROB Occupancy at Mispredict: 248.873
Branch types
NOT_BRANCH: 24603961 98.4158%
BRANCH_DIRECT_JUMP: 52070 0.20828%
BRANCH_INDIRECT: 0 0%
BRANCH_CONDITIONAL: 344150 1.3766%
BRANCH_DIRECT_CALL: 0 0%
BRANCH_INDIRECT_CALL: 0 0%
BRANCH_RETURN: 0 0%
BRANCH_OTHER: 0 0%

DRAM PAGES: 1048576
Allocated PAGES: 19681
