
*** ChampSim Multicore Out-of-Order Simulator ***

Warmup Instructions: 25000000
Simulation Instructions: 25000000
Number of CPUs: 1
LLC sets: 2048
LLC ways: 16
Off-chip DRAM Size: 4096 MB Channels: 1 Width: 64-bit Data Rate: 6400 MT/s
CPU 0 runs ../../traces/trace1.champsimtrace.xz
.xz
BTB has LRU replacement policy
ITLB has LRU replacement policy
DTLB has LRU replacement policy
STLB has LRU replacement policy
L1I has LRU replacement policy
L1D has LRU replacement policy
CPU 0 Region based L2 offset prefetcher
L2C has LRU replacement policy
LLC has LRU replacement policy
Heartbeat CPU 0 instructions: 10000000 cycles: 2548699 heartbeat IPC: 3.92357 cumulative IPC: 3.92357 (Simulation time: 0 hr 0 min 12 sec) 
Heartbeat CPU 0 instructions: 20000001 cycles: 5092770 heartbeat IPC: 3.93071 cumulative IPC: 3.92714 (Simulation time: 0 hr 0 min 23 sec) 

Warmup complete CPU 0 instructions: 25000008 cycles: 6361416 (Simulation time: 0 hr 0 min 29 sec) 

Heartbeat CPU 0 instructions: 30000007 cycles: 15366253 heartbeat IPC: 0.97338 cumulative IPC: 0.555257 (Simulation time: 0 hr 0 min 55 sec) 
Heartbeat CPU 0 instructions: 40000005 cycles: 32959224 heartbeat IPC: 0.568409 cumulative IPC: 0.563956 (Simulation time: 0 hr 1 min 47 sec) 
Heartbeat CPU 0 instructions: 50000006 cycles: 49962438 heartbeat IPC: 0.588124 cumulative IPC: 0.573381 (Simulation time: 0 hr 2 min 39 sec) 
Finished CPU 0 instructions: 25000004 cycles: 43601036 cumulative IPC: 0.573381 (Simulation time: 0 hr 2 min 39 sec) 

ChampSim completed all CPUs

Region of Interest Statistics

CPU 0 cumulative IPC: 0.573381 instructions: 25000004 cycles: 43601036
ITLB TOTAL     ACCESS:    3461133  HIT:    3461133  MISS:          0  HIT %:        100  MISS %:          0   MPKI: 0
ITLB LOAD TRANSLATION ACCESS:    3461133  HIT:    3461133  MISS:          0  HIT %:        100  MISS %:          0   MPKI: 0
ITLB PREFETCH  REQUESTED:          0  ISSUED:          0  USEFUL:          0  USELESS:          0
ITLB USEFUL LOAD PREFETCHES:          0 PREFETCH ISSUED TO LOWER LEVEL:          0  ACCURACY: -nan
ITLB TIMELY PREFETCHES:          0 LATE PREFETCHES: 0 DROPPED PREFETCHES: 0
ITLB PREFETCHES SAME FILL-ORIGIN LEVEL: 0 DIFFERENT FILL-ORIGIN LEVEL: 0
ITLB AVERAGE MISS LATENCY: -nan cycles
ITLB RQ	ACCESS:    4427927	FORWARD:          0	MERGED:     966794	TO_CACHE:    3461133

DTLB TOTAL     ACCESS:    3431841  HIT:    3403016  MISS:      28825  HIT %:    99.1601  MISS %:   0.839928   MPKI: 1.153
DTLB LOAD TRANSLATION ACCESS:    3431841  HIT:    3403016  MISS:      28825  HIT %:    99.1601  MISS %:   0.839928   MPKI: 1.153
DTLB PREFETCH  REQUESTED:          0  ISSUED:          0  USEFUL:          0  USELESS:          0
DTLB USEFUL LOAD PREFETCHES:          0 PREFETCH ISSUED TO LOWER LEVEL:          0  ACCURACY: -nan
DTLB TIMELY PREFETCHES:          0 LATE PREFETCHES: 0 DROPPED PREFETCHES: 0
DTLB PREFETCHES SAME FILL-ORIGIN LEVEL: 0 DIFFERENT FILL-ORIGIN LEVEL: 0
DTLB AVERAGE MISS LATENCY: 116.723 cycles
DTLB RQ	ACCESS:    5512196	FORWARD:          0	MERGED:    2068218	TO_CACHE:    3443978

STLB TOTAL     ACCESS:      28825  HIT:      13183  MISS:      15642  HIT %:    45.7346  MISS %:    54.2654   MPKI: 0.62568
STLB LOAD TRANSLATION ACCESS:      28825  HIT:      13183  MISS:      15642  HIT %:    45.7346  MISS %:    54.2654   MPKI: 0.62568
STLB PREFETCH  REQUESTED:          0  ISSUED:          0  USEFUL:          0  USELESS:          0
STLB USEFUL LOAD PREFETCHES:          0 PREFETCH ISSUED TO LOWER LEVEL:          0  ACCURACY: -nan
STLB TIMELY PREFETCHES:          0 LATE PREFETCHES: 0 DROPPED PREFETCHES: 0
STLB PREFETCHES SAME FILL-ORIGIN LEVEL: 0 DIFFERENT FILL-ORIGIN LEVEL: 0
STLB AVERAGE MISS LATENCY: 194.955 cycles
STLB RQ	ACCESS:      28825	FORWARD:          0	MERGED:          0	TO_CACHE:      28825

STLB Hit, L1D data hit: 0
STLB Hit, L2C data hit: 0
STLB Hit, LLC data hit: 0
STLB Hit, LLC data miss: 0
STLB STLB hints to L2: 0
L1D TOTAL     ACCESS:    5429819  HIT:    3778568  MISS:    1651251  HIT %:    69.5892  MISS %:    30.4108   MPKI: 66.05
L1D LOAD      ACCESS:    1337131  HIT:    1086926  MISS:     250205  HIT %:    81.2879  MISS %:    18.7121   MPKI: 10.0082
L1D RFO       ACCESS:    4092688  HIT:    2691642  MISS:    1401046  HIT %:    65.7671  MISS %:    34.2329   MPKI: 56.0418
L1D PREFETCH  REQUESTED:          0  ISSUED:          0  USEFUL:          0  USELESS:          0
L1D USEFUL LOAD PREFETCHES:          0 PREFETCH ISSUED TO LOWER LEVEL:          0  ACCURACY: -nan
L1D TIMELY PREFETCHES:          0 LATE PREFETCHES: 0 DROPPED PREFETCHES: 0
L1D PREFETCHES SAME FILL-ORIGIN LEVEL: 0 DIFFERENT FILL-ORIGIN LEVEL: 0
L1D AVERAGE MISS LATENCY: 340.129 cycles
L1D RQ	ACCESS:    4340798	FORWARD:          0	MERGED:    2598012	TO_CACHE:    1399004
L1D WQ	ACCESS:    4349460	FORWARD:     343782	MERGED:     236268	TO_CACHE:    4113192

L1D UNIQUE REGIONS ACCESSED: 0
L1D REGIONS CONFLICTS: 0
L1D Cross Page Prefetch Requests: 0
L1D Same Page Prefetch Requests: 0
L1D ROI Sum of L1D PQ occupancy: 0
L1D PREFETCHES PUSHED FROM L2C: 0
L1I TOTAL     ACCESS:    4427926  HIT:    4427926  MISS:          0  HIT %:        100  MISS %:          0   MPKI: 0
L1I LOAD      ACCESS:    4427926  HIT:    4427926  MISS:          0  HIT %:        100  MISS %:          0   MPKI: 0
L1I PREFETCH  REQUESTED:          0  ISSUED:          0  USEFUL:          0  USELESS:          0
L1I USEFUL LOAD PREFETCHES:          0 PREFETCH ISSUED TO LOWER LEVEL:          0  ACCURACY: -nan
L1I TIMELY PREFETCHES:          0 LATE PREFETCHES: 0 DROPPED PREFETCHES: 0
L1I PREFETCHES SAME FILL-ORIGIN LEVEL: 0 DIFFERENT FILL-ORIGIN LEVEL: 0
L1I AVERAGE MISS LATENCY: -nan cycles
L1I RQ	ACCESS:    6450600	FORWARD:          0	MERGED:    2022673	TO_CACHE:    4427927

BTB TOTAL     ACCESS:     396212  HIT:     396206  MISS:          6  HIT %:    99.9985  MISS %: 0.00151434   MPKI: 0.00024
BTB BRANCH_DIRECT_JUMP	ACCESS:      52070  HIT:      52069  MISS:          1
BTB BRANCH_INDIRECT	ACCESS:          0  HIT:          0  MISS:          0
BTB BRANCH_CONDITIONAL	ACCESS:     344142  HIT:     344137  MISS:          5
BTB BRANCH_DIRECT_CALL	ACCESS:          0  HIT:          0  MISS:          0
BTB BRANCH_INDIRECT_CALL	ACCESS:          0  HIT:          0  MISS:          0
BTB BRANCH_RETURN	ACCESS:          0  HIT:          0  MISS:          0
BTB BRANCH_OTHER ACCESS:          0  HIT:          0  MISS:          0

L2C TOTAL     ACCESS:    3477954  HIT:    2469213  MISS:    1008741  HIT %:    70.9961  MISS %:    29.0039   MPKI: 40.3496
L2C LOAD      ACCESS:     250205  HIT:      82702  MISS:     167503  HIT %:    33.0537  MISS %:    66.9463   MPKI: 6.70012
L2C DATA LOAD MPKI: 6.70012
L2C INSTRUCTION LOAD MPKI: 0
L2C RFO       ACCESS:    1401046  HIT:     644515  MISS:     756531  HIT %:    46.0024  MISS %:    53.9976   MPKI: 30.2612
L2C PREFETCH  ACCESS:     410009  HIT:     327309  MISS:      82700  HIT %:    79.8297  MISS %:    20.1703   MPKI: 3.308
AGUS PREFETCH L1 MISS: 0
L2C DATA PREFETCH MPKI: 3.308
L2C INSTRUCTION PREFETCH MPKI: 0
L2C WRITEBACK ACCESS:    1401050  HIT:    1401020  MISS:         30  HIT %:    99.9979  MISS %: 0.00214125   MPKI: 0.0012
L2C LOAD TRANSLATION ACCESS:      15644  HIT:      13667  MISS:       1977  HIT %:    87.3626  MISS %:    12.6374   MPKI: 0.07908
L2C PREFETCH  REQUESTED:     786989  ISSUED:     753932  USEFUL:      82694  USELESS:         10
L2C USEFUL LOAD PREFETCHES:      82694 PREFETCH ISSUED TO LOWER LEVEL:     177625  ACCURACY: 46.5554
L2C TIMELY PREFETCHES:      82694 LATE PREFETCHES: 34527 DROPPED PREFETCHES: 0
L2C PREFETCHES SAME FILL-ORIGIN LEVEL: 117227 DIFFERENT FILL-ORIGIN LEVEL: 60398
L2C AVERAGE MISS LATENCY: 571.16 cycles
L2C RQ	ACCESS:    1666906	FORWARD:          0	MERGED:          0	TO_CACHE:    1666906
L2C WQ	ACCESS:    1401050	FORWARD:          0	MERGED:          0	TO_CACHE:    1401050
L2C PQ	ACCESS:     753932	FORWARD:          0	MERGED:      91086	TO_CACHE:     662846

L2C Instructions Evicting Data 0
L2C Translations Evicting Data 1975
L2C Data Evicting Data 1004751
L2C Instructions Evicting Instructions 0
L2C Translations Evicting Instructions 0
L2C Data Evicting Instructions 0
L2C Instructions Evicting Translations 0
L2C Translations Evicting Translations 2
L2C Data Evicting Translations 1983
L2C Dense regions hint from L2: 0
PSCL5 TOTAL     ACCESS:      15642  HIT:      15642  MISS:          0  HIT %:        100  MISS %:          0   MPKI: 0
PSCL5 LOAD TRANSLATION ACCESS:      15642  HIT:      15642  MISS:          0  HIT %:        100  MISS %:          0   MPKI: 0
PSCL5 PREFETCH  REQUESTED:          0  ISSUED:          0  USEFUL:          0  USELESS:          0
PSCL5 USEFUL LOAD PREFETCHES:          0 PREFETCH ISSUED TO LOWER LEVEL:          0  ACCURACY: -nan
PSCL5 TIMELY PREFETCHES:          0 LATE PREFETCHES: 0 DROPPED PREFETCHES: 0
PSCL5 PREFETCHES SAME FILL-ORIGIN LEVEL: 0 DIFFERENT FILL-ORIGIN LEVEL: 0

PSCL4 TOTAL     ACCESS:      15642  HIT:      15642  MISS:          0  HIT %:        100  MISS %:          0   MPKI: 0
PSCL4 LOAD TRANSLATION ACCESS:      15642  HIT:      15642  MISS:          0  HIT %:        100  MISS %:          0   MPKI: 0
PSCL4 PREFETCH  REQUESTED:          0  ISSUED:          0  USEFUL:          0  USELESS:          0
PSCL4 USEFUL LOAD PREFETCHES:          0 PREFETCH ISSUED TO LOWER LEVEL:          0  ACCURACY: -nan
PSCL4 TIMELY PREFETCHES:          0 LATE PREFETCHES: 0 DROPPED PREFETCHES: 0
PSCL4 PREFETCHES SAME FILL-ORIGIN LEVEL: 0 DIFFERENT FILL-ORIGIN LEVEL: 0

PSCL3 TOTAL     ACCESS:      15642  HIT:      15642  MISS:          0  HIT %:        100  MISS %:          0   MPKI: 0
PSCL3 LOAD TRANSLATION ACCESS:      15642  HIT:      15642  MISS:          0  HIT %:        100  MISS %:          0   MPKI: 0
PSCL3 PREFETCH  REQUESTED:          0  ISSUED:          0  USEFUL:          0  USELESS:          0
PSCL3 USEFUL LOAD PREFETCHES:          0 PREFETCH ISSUED TO LOWER LEVEL:          0  ACCURACY: -nan
PSCL3 TIMELY PREFETCHES:          0 LATE PREFETCHES: 0 DROPPED PREFETCHES: 0
PSCL3 PREFETCHES SAME FILL-ORIGIN LEVEL: 0 DIFFERENT FILL-ORIGIN LEVEL: 0

PSCL2 TOTAL     ACCESS:      15642  HIT:      15625  MISS:         17  HIT %:    99.8913  MISS %:   0.108682   MPKI: 0.00068
PSCL2 LOAD TRANSLATION ACCESS:      15642  HIT:      15625  MISS:         17  HIT %:    99.8913  MISS %:   0.108682   MPKI: 0.00068
PSCL2 PREFETCH  REQUESTED:          0  ISSUED:          0  USEFUL:          0  USELESS:          0
PSCL2 USEFUL LOAD PREFETCHES:          0 PREFETCH ISSUED TO LOWER LEVEL:          0  ACCURACY: -nan
PSCL2 TIMELY PREFETCHES:          0 LATE PREFETCHES: 0 DROPPED PREFETCHES: 0
PSCL2 PREFETCHES SAME FILL-ORIGIN LEVEL: 0 DIFFERENT FILL-ORIGIN LEVEL: 0

LLC TOTAL     ACCESS:    1800363  HIT:     797622  MISS:    1002741  HIT %:    44.3034  MISS %:    55.6966   MPKI: 40.1096
LLC LOAD      ACCESS:     132976  HIT:       5481  MISS:     127495  HIT %:     4.1218  MISS %:    95.8782   MPKI: 5.0998
LLC RFO       ACCESS:     756524  HIT:       5995  MISS:     750529  HIT %:    0.79244  MISS %:    99.2076   MPKI: 30.0212
LLC PREFETCH  ACCESS:     151394  HIT:      28684  MISS:     122710  HIT %:    18.9466  MISS %:    81.0534   MPKI: 4.9084
AGUS PREFETCH L1 MISS: 0
LLC WRITEBACK ACCESS:     757492  HIT:     757462  MISS:         30  HIT %:     99.996  MISS %: 0.00396044   MPKI: 0.0012
LLC LOAD TRANSLATION ACCESS:       1977  HIT:          0  MISS:       1977  HIT %:          0  MISS %:        100   MPKI: 0.07908
LLC PREFETCH  REQUESTED:          0  ISSUED:          0  USEFUL:       5481  USELESS:     115978
LLC USEFUL LOAD PREFETCHES:       5481 PREFETCH ISSUED TO LOWER LEVEL:     130364  ACCURACY: 4.20438
LLC TIMELY PREFETCHES:       5481 LATE PREFETCHES: 7654 DROPPED PREFETCHES: 0
LLC PREFETCHES SAME FILL-ORIGIN LEVEL: 40409 DIFFERENT FILL-ORIGIN LEVEL: 0
LLC AVERAGE MISS LATENCY: 569.032 cycles
LLC RQ	ACCESS:     891495	FORWARD:          0	MERGED:          0	TO_CACHE:     891488
LLC WQ	ACCESS:     757492	FORWARD:          7	MERGED:          0	TO_CACHE:     757492
LLC PQ	ACCESS:     177625	FORWARD:          0	MERGED:        721	TO_CACHE:     176904

LLC Dense regions hint to LLC: 0

RAW hits: 1980857
Reg RAW dependents: 19486872
Loads Generated: 6321678
Loads sent to L1D: 4340798
Stores Generated: 4349455
Stores sent to L1D: 4349460
Major fault: 0 Minor fault: 19681
Allocated PAGES: 19681
Average branch resolution latency (in cycles): 70.5084
CPU 0 L2C Region based offset prefetcher final stats

DRAM Statistics
 CHANNEL 0
 RQ ROW_BUFFER_HIT:      84510  ROW_BUFFER_MISS:     918201
 DBUS_CONGESTED:          0
 WQ ROW_BUFFER_HIT:     162267  ROW_BUFFER_MISS:     589266  FULL:          0

 AVG_CONGESTED_CYCLE: -
 All warmup complete: 2
Channel 0 Bank busy for read cycles: 0
Channel 0 Bank busy for write cycles: 0
Channel 0
Rank 0
0banks busy for read cycles: 12744
0banks busy for write cycles: 0
1banks busy for read cycles: 1238185
1banks busy for write cycles: 76662
2banks busy for read cycles: 518553
2banks busy for write cycles: 76662
3banks busy for read cycles: 685971
3banks busy for write cycles: 76662
4banks busy for read cycles: 3640816
4banks busy for write cycles: 76662
5banks busy for read cycles: 4713147
5banks busy for write cycles: 76662
6banks busy for read cycles: 4907629
6banks busy for write cycles: 76728
7banks busy for read cycles: 5664255
7banks busy for write cycles: 829685
8banks busy for read cycles: 6142233
8banks busy for write cycles: 14787781

CPU 0 Branch Prediction Accuracy: 97.8416% MPKI: 0.34208 Average ROB Occupancy at Mispredict: 250.139
Branch types
NOT_BRANCH: 24604096 98.4164%
BRANCH_DIRECT_JUMP: 52070 0.20828%
BRANCH_INDIRECT: 0 0%
BRANCH_CONDITIONAL: 344150 1.3766%
BRANCH_DIRECT_CALL: 0 0%
BRANCH_INDIRECT_CALL: 0 0%
BRANCH_RETURN: 0 0%
BRANCH_OTHER: 0 0%

DRAM PAGES: 1048576
Allocated PAGES: 19681
