
*** ChampSim Multicore Out-of-Order Simulator ***

Warmup Instructions: 25000000
Simulation Instructions: 25000000
Number of CPUs: 1
LLC sets: 2048
LLC ways: 16
Off-chip DRAM Size: 4096 MB Channels: 1 Width: 64-bit Data Rate: 6400 MT/s
CPU 0 runs ../../traces/trace1.champsimtrace.xz
.xz
BTB has LRU replacement policy
ITLB has LRU replacement policy
DTLB has LRU replacement policy
STLB has LRU replacement policy
L1I has LRU replacement policy
L1D has LRU replacement policy
CPU 0 Region based L2 offset prefetcher
L2C has LRU replacement policy
LLC has LRU replacement policy
Heartbeat CPU 0 instructions: 10000000 cycles: 2548750 heartbeat IPC: 3.92349 cumulative IPC: 3.92349 (Simulation time: 0 hr 0 min 11 sec) 
Heartbeat CPU 0 instructions: 20000001 cycles: 5092806 heartbeat IPC: 3.93073 cumulative IPC: 3.92711 (Simulation time: 0 hr 0 min 22 sec) 

Warmup complete CPU 0 instructions: 25000008 cycles: 6361498 (Simulation time: 0 hr 0 min 27 sec) 

Heartbeat CPU 0 instructions: 30000007 cycles: 15394346 heartbeat IPC: 0.970729 cumulative IPC: 0.553535 (Simulation time: 0 hr 0 min 52 sec) 
Heartbeat CPU 0 instructions: 40000002 cycles: 33058934 heartbeat IPC: 0.566104 cumulative IPC: 0.561852 (Simulation time: 0 hr 1 min 42 sec) 
Heartbeat CPU 0 instructions: 50000006 cycles: 50077284 heartbeat IPC: 0.587601 cumulative IPC: 0.571876 (Simulation time: 0 hr 2 min 30 sec) 
Finished CPU 0 instructions: 25000004 cycles: 43715800 cumulative IPC: 0.571876 (Simulation time: 0 hr 2 min 30 sec) 

ChampSim completed all CPUs

Region of Interest Statistics

CPU 0 cumulative IPC: 0.571876 instructions: 25000004 cycles: 43715800
ITLB TOTAL     ACCESS:    3459082  HIT:    3459082  MISS:          0  HIT %:        100  MISS %:          0   MPKI: 0
ITLB LOAD TRANSLATION ACCESS:    3459082  HIT:    3459082  MISS:          0  HIT %:        100  MISS %:          0   MPKI: 0
ITLB PREFETCH  REQUESTED:          0  ISSUED:          0  USEFUL:          0  USELESS:          0
ITLB USEFUL LOAD PREFETCHES:          0 PREFETCH ISSUED TO LOWER LEVEL:          0  ACCURACY: -nan
ITLB TIMELY PREFETCHES:          0 LATE PREFETCHES: 0 DROPPED PREFETCHES: 0
ITLB PREFETCHES SAME FILL-ORIGIN LEVEL: 0 DIFFERENT FILL-ORIGIN LEVEL: 0
ITLB AVERAGE MISS LATENCY: -nan cycles
ITLB RQ	ACCESS:    4426015	FORWARD:          0	MERGED:     966934	TO_CACHE:    3459081

DTLB TOTAL     ACCESS:    3451084  HIT:    3422259  MISS:      28825  HIT %:    99.1648  MISS %:   0.835245   MPKI: 1.153
DTLB LOAD TRANSLATION ACCESS:    3451084  HIT:    3422259  MISS:      28825  HIT %:    99.1648  MISS %:   0.835245   MPKI: 1.153
DTLB PREFETCH  REQUESTED:          0  ISSUED:          0  USEFUL:          0  USELESS:          0
DTLB USEFUL LOAD PREFETCHES:          0 PREFETCH ISSUED TO LOWER LEVEL:          0  ACCURACY: -nan
DTLB TIMELY PREFETCHES:          0 LATE PREFETCHES: 0 DROPPED PREFETCHES: 0
DTLB PREFETCHES SAME FILL-ORIGIN LEVEL: 0 DIFFERENT FILL-ORIGIN LEVEL: 0
DTLB AVERAGE MISS LATENCY: 116.319 cycles
DTLB RQ	ACCESS:    5550405	FORWARD:          0	MERGED:    2087458	TO_CACHE:    3462947

STLB TOTAL     ACCESS:      28825  HIT:      13183  MISS:      15642  HIT %:    45.7346  MISS %:    54.2654   MPKI: 0.62568
STLB LOAD TRANSLATION ACCESS:      28825  HIT:      13183  MISS:      15642  HIT %:    45.7346  MISS %:    54.2654   MPKI: 0.62568
STLB PREFETCH  REQUESTED:          0  ISSUED:          0  USEFUL:          0  USELESS:          0
STLB USEFUL LOAD PREFETCHES:          0 PREFETCH ISSUED TO LOWER LEVEL:          0  ACCURACY: -nan
STLB TIMELY PREFETCHES:          0 LATE PREFETCHES: 0 DROPPED PREFETCHES: 0
STLB PREFETCHES SAME FILL-ORIGIN LEVEL: 0 DIFFERENT FILL-ORIGIN LEVEL: 0
STLB AVERAGE MISS LATENCY: 194.224 cycles
STLB RQ	ACCESS:      28825	FORWARD:          0	MERGED:          0	TO_CACHE:      28825

STLB Hit, L1D data hit: 0
STLB Hit, L2C data hit: 0
STLB Hit, LLC data hit: 0
STLB Hit, LLC data miss: 0
STLB STLB hints to L2: 0
L1D TOTAL     ACCESS:    5467878  HIT:    3816645  MISS:    1651233  HIT %:    69.8012  MISS %:    30.1988   MPKI: 66.0493
L1D LOAD      ACCESS:    1362369  HIT:    1112163  MISS:     250206  HIT %:    81.6345  MISS %:    18.3655   MPKI: 10.0082
L1D RFO       ACCESS:    4105509  HIT:    2704482  MISS:    1401027  HIT %:    65.8745  MISS %:    34.1255   MPKI: 56.0411
L1D PREFETCH  REQUESTED:          0  ISSUED:          0  USEFUL:          0  USELESS:          0
L1D USEFUL LOAD PREFETCHES:          0 PREFETCH ISSUED TO LOWER LEVEL:          0  ACCURACY: -nan
L1D TIMELY PREFETCHES:          0 LATE PREFETCHES: 0 DROPPED PREFETCHES: 0
L1D PREFETCHES SAME FILL-ORIGIN LEVEL: 0 DIFFERENT FILL-ORIGIN LEVEL: 0
L1D AVERAGE MISS LATENCY: 339.211 cycles
L1D RQ	ACCESS:    4350794	FORWARD:          0	MERGED:    2612696	TO_CACHE:    1425013
L1D WQ	ACCESS:    4349460	FORWARD:     313085	MERGED:     224068	TO_CACHE:    4125392

L1D UNIQUE REGIONS ACCESSED: 0
L1D REGIONS CONFLICTS: 0
L1D Cross Page Prefetch Requests: 0
L1D Same Page Prefetch Requests: 0
L1D ROI Sum of L1D PQ occupancy: 0
L1D PREFETCHES PUSHED FROM L2C: 0
L1I TOTAL     ACCESS:    4426014  HIT:    4426014  MISS:          0  HIT %:        100  MISS %:          0   MPKI: 0
L1I LOAD      ACCESS:    4426014  HIT:    4426014  MISS:          0  HIT %:        100  MISS %:          0   MPKI: 0
L1I PREFETCH  REQUESTED:          0  ISSUED:          0  USEFUL:          0  USELESS:          0
L1I USEFUL LOAD PREFETCHES:          0 PREFETCH ISSUED TO LOWER LEVEL:          0  ACCURACY: -nan
L1I TIMELY PREFETCHES:          0 LATE PREFETCHES: 0 DROPPED PREFETCHES: 0
L1I PREFETCHES SAME FILL-ORIGIN LEVEL: 0 DIFFERENT FILL-ORIGIN LEVEL: 0
L1I AVERAGE MISS LATENCY: -nan cycles
L1I RQ	ACCESS:    6447769	FORWARD:          0	MERGED:    2021754	TO_CACHE:    4426015

BTB TOTAL     ACCESS:     396212  HIT:     396206  MISS:          6  HIT %:    99.9985  MISS %: 0.00151434   MPKI: 0.00024
BTB BRANCH_DIRECT_JUMP	ACCESS:      52070  HIT:      52069  MISS:          1
BTB BRANCH_INDIRECT	ACCESS:          0  HIT:          0  MISS:          0
BTB BRANCH_CONDITIONAL	ACCESS:     344142  HIT:     344137  MISS:          5
BTB BRANCH_DIRECT_CALL	ACCESS:          0  HIT:          0  MISS:          0
BTB BRANCH_INDIRECT_CALL	ACCESS:          0  HIT:          0  MISS:          0
BTB BRANCH_RETURN	ACCESS:          0  HIT:          0  MISS:          0
BTB BRANCH_OTHER ACCESS:          0  HIT:          0  MISS:          0

L2C TOTAL     ACCESS:    3431409  HIT:    2422899  MISS:    1008510  HIT %:    70.6094  MISS %:    29.3906   MPKI: 40.3404
L2C LOAD      ACCESS:     250206  HIT:      78190  MISS:     172016  HIT %:    31.2502  MISS %:    68.7498   MPKI: 6.88064
L2C DATA LOAD MPKI: 6.88064
L2C INSTRUCTION LOAD MPKI: 0
L2C RFO       ACCESS:    1401027  HIT:     644730  MISS:     756297  HIT %:    46.0184  MISS %:    53.9816   MPKI: 30.2519
L2C PREFETCH  ACCESS:     363498  HIT:     285308  MISS:      78190  HIT %:    78.4896  MISS %:    21.5104   MPKI: 3.1276
AGUS PREFETCH L1 MISS: 0
L2C DATA PREFETCH MPKI: 3.1276
L2C INSTRUCTION PREFETCH MPKI: 0
L2C WRITEBACK ACCESS:    1401034  HIT:    1401004  MISS:         30  HIT %:    99.9979  MISS %: 0.00214128   MPKI: 0.0012
L2C LOAD TRANSLATION ACCESS:      15644  HIT:      13667  MISS:       1977  HIT %:    87.3626  MISS %:    12.6374   MPKI: 0.07908
L2C PREFETCH  REQUESTED:     722866  ISSUED:     696521  USEFUL:      78181  USELESS:         13
L2C USEFUL LOAD PREFETCHES:      78181 PREFETCH ISSUED TO LOWER LEVEL:     171803  ACCURACY: 45.5062
L2C TIMELY PREFETCHES:      78181 LATE PREFETCHES: 37164 DROPPED PREFETCHES: 0
L2C PREFETCHES SAME FILL-ORIGIN LEVEL: 115354 DIFFERENT FILL-ORIGIN LEVEL: 56449
L2C AVERAGE MISS LATENCY: 567.667 cycles
L2C RQ	ACCESS:    1666893	FORWARD:          0	MERGED:          0	TO_CACHE:    1666893
L2C WQ	ACCESS:    1401034	FORWARD:          0	MERGED:          0	TO_CACHE:    1401034
L2C PQ	ACCESS:     696521	FORWARD:          0	MERGED:      83422	TO_CACHE:     613099

L2C Instructions Evicting Data 0
L2C Translations Evicting Data 1975
L2C Data Evicting Data 1004520
L2C Instructions Evicting Instructions 0
L2C Translations Evicting Instructions 0
L2C Data Evicting Instructions 0
L2C Instructions Evicting Translations 0
L2C Translations Evicting Translations 2
L2C Data Evicting Translations 1983
L2C Dense regions hint from L2: 0
PSCL5 TOTAL     ACCESS:      15642  HIT:      15642  MISS:          0  HIT %:        100  MISS %:          0   MPKI: 0
PSCL5 LOAD TRANSLATION ACCESS:      15642  HIT:      15642  MISS:          0  HIT %:        100  MISS %:          0   MPKI: 0
PSCL5 PREFETCH  REQUESTED:          0  ISSUED:          0  USEFUL:          0  USELESS:          0
PSCL5 USEFUL LOAD PREFETCHES:          0 PREFETCH ISSUED TO LOWER LEVEL:          0  ACCURACY: -nan
PSCL5 TIMELY PREFETCHES:          0 LATE PREFETCHES: 0 DROPPED PREFETCHES: 0
PSCL5 PREFETCHES SAME FILL-ORIGIN LEVEL: 0 DIFFERENT FILL-ORIGIN LEVEL: 0

PSCL4 TOTAL     ACCESS:      15642  HIT:      15642  MISS:          0  HIT %:        100  MISS %:          0   MPKI: 0
PSCL4 LOAD TRANSLATION ACCESS:      15642  HIT:      15642  MISS:          0  HIT %:        100  MISS %:          0   MPKI: 0
PSCL4 PREFETCH  REQUESTED:          0  ISSUED:          0  USEFUL:          0  USELESS:          0
PSCL4 USEFUL LOAD PREFETCHES:          0 PREFETCH ISSUED TO LOWER LEVEL:          0  ACCURACY: -nan
PSCL4 TIMELY PREFETCHES:          0 LATE PREFETCHES: 0 DROPPED PREFETCHES: 0
PSCL4 PREFETCHES SAME FILL-ORIGIN LEVEL: 0 DIFFERENT FILL-ORIGIN LEVEL: 0

PSCL3 TOTAL     ACCESS:      15642  HIT:      15642  MISS:          0  HIT %:        100  MISS %:          0   MPKI: 0
PSCL3 LOAD TRANSLATION ACCESS:      15642  HIT:      15642  MISS:          0  HIT %:        100  MISS %:          0   MPKI: 0
PSCL3 PREFETCH  REQUESTED:          0  ISSUED:          0  USEFUL:          0  USELESS:          0
PSCL3 USEFUL LOAD PREFETCHES:          0 PREFETCH ISSUED TO LOWER LEVEL:          0  ACCURACY: -nan
PSCL3 TIMELY PREFETCHES:          0 LATE PREFETCHES: 0 DROPPED PREFETCHES: 0
PSCL3 PREFETCHES SAME FILL-ORIGIN LEVEL: 0 DIFFERENT FILL-ORIGIN LEVEL: 0

PSCL2 TOTAL     ACCESS:      15642  HIT:      15625  MISS:         17  HIT %:    99.8913  MISS %:   0.108682   MPKI: 0.00068
PSCL2 LOAD TRANSLATION ACCESS:      15642  HIT:      15625  MISS:         17  HIT %:    99.8913  MISS %:   0.108682   MPKI: 0.00068
PSCL2 PREFETCH  REQUESTED:          0  ISSUED:          0  USEFUL:          0  USELESS:          0
PSCL2 USEFUL LOAD PREFETCHES:          0 PREFETCH ISSUED TO LOWER LEVEL:          0  ACCURACY: -nan
PSCL2 TIMELY PREFETCHES:          0 LATE PREFETCHES: 0 DROPPED PREFETCHES: 0
PSCL2 PREFETCHES SAME FILL-ORIGIN LEVEL: 0 DIFFERENT FILL-ORIGIN LEVEL: 0

LLC TOTAL     ACCESS:    1795912  HIT:     793181  MISS:    1002731  HIT %:    44.1659  MISS %:    55.8341   MPKI: 40.1092
LLC LOAD      ACCESS:     134852  HIT:       5586  MISS:     129266  HIT %:    4.14232  MISS %:    95.8577   MPKI: 5.17064
LLC RFO       ACCESS:     756280  HIT:       5762  MISS:     750518  HIT %:   0.761887  MISS %:    99.2381   MPKI: 30.0207
LLC PREFETCH  ACCESS:     145582  HIT:      24642  MISS:     120940  HIT %:    16.9265  MISS %:    83.0735   MPKI: 4.8376
AGUS PREFETCH L1 MISS: 0
LLC WRITEBACK ACCESS:     757221  HIT:     757191  MISS:         30  HIT %:     99.996  MISS %: 0.00396186   MPKI: 0.0012
LLC LOAD TRANSLATION ACCESS:       1977  HIT:          0  MISS:       1977  HIT %:          0  MISS %:        100   MPKI: 0.07908
LLC PREFETCH  REQUESTED:          0  ISSUED:          0  USEFUL:       5585  USELESS:     114306
LLC USEFUL LOAD PREFETCHES:       5585 PREFETCH ISSUED TO LOWER LEVEL:     129342  ACCURACY: 4.31801
LLC TIMELY PREFETCHES:       5585 LATE PREFETCHES: 8402 DROPPED PREFETCHES: 0
LLC PREFETCHES SAME FILL-ORIGIN LEVEL: 38676 DIFFERENT FILL-ORIGIN LEVEL: 0
LLC AVERAGE MISS LATENCY: 564.85 cycles
LLC RQ	ACCESS:     893142	FORWARD:          0	MERGED:          0	TO_CACHE:     893125
LLC WQ	ACCESS:     757221	FORWARD:         17	MERGED:          0	TO_CACHE:     757221
LLC PQ	ACCESS:     171803	FORWARD:          0	MERGED:        785	TO_CACHE:     171018

LLC Dense regions hint to LLC: 0

RAW hits: 1970861
Reg RAW dependents: 19477837
Loads Generated: 6321677
Loads sent to L1D: 4350794
Stores Generated: 4349455
Stores sent to L1D: 4349460
Major fault: 0 Minor fault: 19681
Allocated PAGES: 19681
Average branch resolution latency (in cycles): 70.9057
CPU 0 L2C Region based offset prefetcher final stats

DRAM Statistics
 CHANNEL 0
 RQ ROW_BUFFER_HIT:      82790  ROW_BUFFER_MISS:     919915
 DBUS_CONGESTED:          0
 WQ ROW_BUFFER_HIT:     162098  ROW_BUFFER_MISS:     589270  FULL:          0

 AVG_CONGESTED_CYCLE: -
 All warmup complete: 2
Channel 0 Bank busy for read cycles: 0
Channel 0 Bank busy for write cycles: 0
Channel 0
Rank 0
0banks busy for read cycles: 12837
0banks busy for write cycles: 0
1banks busy for read cycles: 1265564
1banks busy for write cycles: 76805
2banks busy for read cycles: 522790
2banks busy for write cycles: 76805
3banks busy for read cycles: 705805
3banks busy for write cycles: 76805
4banks busy for read cycles: 3668533
4banks busy for write cycles: 76805
5banks busy for read cycles: 4769735
5banks busy for write cycles: 76805
6banks busy for read cycles: 4982004
6banks busy for write cycles: 76920
7banks busy for read cycles: 5688596
7banks busy for write cycles: 830670
8banks busy for read cycles: 6018102
8banks busy for write cycles: 14790220

CPU 0 Branch Prediction Accuracy: 97.8416% MPKI: 0.34208 Average ROB Occupancy at Mispredict: 249.028
Branch types
NOT_BRANCH: 24604084 98.4163%
BRANCH_DIRECT_JUMP: 52070 0.20828%
BRANCH_INDIRECT: 0 0%
BRANCH_CONDITIONAL: 344150 1.3766%
BRANCH_DIRECT_CALL: 0 0%
BRANCH_INDIRECT_CALL: 0 0%
BRANCH_RETURN: 0 0%
BRANCH_OTHER: 0 0%

DRAM PAGES: 1048576
Allocated PAGES: 19681
