
*** ChampSim Multicore Out-of-Order Simulator ***

Warmup Instructions: 25000000
Simulation Instructions: 25000000
Number of CPUs: 1
LLC sets: 2048
LLC ways: 16
Off-chip DRAM Size: 4096 MB Channels: 1 Width: 64-bit Data Rate: 6400 MT/s
CPU 0 runs ../../traces/trace1.champsimtrace.xz
.xz
BTB has LRU replacement policy
ITLB has LRU replacement policy
DTLB has LRU replacement policy
STLB has LRU replacement policy
L1I has LRU replacement policy
L1D has LRU replacement policy
CPU 0 Region based L2 offset prefetcher
L2C has LRU replacement policy
LLC has LRU replacement policy
Heartbeat CPU 0 instructions: 10000000 cycles: 2548547 heartbeat IPC: 3.9238 cumulative IPC: 3.9238 (Simulation time: 0 hr 0 min 11 sec) 
Heartbeat CPU 0 instructions: 20000001 cycles: 5092485 heartbeat IPC: 3.93091 cumulative IPC: 3.92736 (Simulation time: 0 hr 0 min 23 sec) 

Warmup complete CPU 0 instructions: 25000008 cycles: 6361014 (Simulation time: 0 hr 0 min 28 sec) 

Heartbeat CPU 0 instructions: 30000002 cycles: 15376867 heartbeat IPC: 0.972348 cumulative IPC: 0.554578 (Simulation time: 0 hr 0 min 54 sec) 
Heartbeat CPU 0 instructions: 40000002 cycles: 33006841 heartbeat IPC: 0.567216 cumulative IPC: 0.56294 (Simulation time: 0 hr 1 min 47 sec) 
Heartbeat CPU 0 instructions: 50000006 cycles: 49999825 heartbeat IPC: 0.588478 cumulative IPC: 0.572885 (Simulation time: 0 hr 2 min 36 sec) 
Finished CPU 0 instructions: 25000004 cycles: 43638825 cumulative IPC: 0.572884 (Simulation time: 0 hr 2 min 36 sec) 

ChampSim completed all CPUs

Region of Interest Statistics

CPU 0 cumulative IPC: 0.572884 instructions: 25000004 cycles: 43638825
ITLB TOTAL     ACCESS:    3458483  HIT:    3458483  MISS:          0  HIT %:        100  MISS %:          0   MPKI: 0
ITLB LOAD TRANSLATION ACCESS:    3458483  HIT:    3458483  MISS:          0  HIT %:        100  MISS %:          0   MPKI: 0
ITLB PREFETCH  REQUESTED:          0  ISSUED:          0  USEFUL:          0  USELESS:          0
ITLB USEFUL LOAD PREFETCHES:          0 PREFETCH ISSUED TO LOWER LEVEL:          0  ACCURACY: -nan
ITLB TIMELY PREFETCHES:          0 LATE PREFETCHES: 0 DROPPED PREFETCHES: 0
ITLB PREFETCHES SAME FILL-ORIGIN LEVEL: 0 DIFFERENT FILL-ORIGIN LEVEL: 0
ITLB AVERAGE MISS LATENCY: -nan cycles
ITLB RQ	ACCESS:    4425515	FORWARD:          0	MERGED:     967032	TO_CACHE:    3458483

DTLB TOTAL     ACCESS:    3433278  HIT:    3404453  MISS:      28825  HIT %:    99.1604  MISS %:   0.839577   MPKI: 1.153
DTLB LOAD TRANSLATION ACCESS:    3433278  HIT:    3404453  MISS:      28825  HIT %:    99.1604  MISS %:   0.839577   MPKI: 1.153
DTLB PREFETCH  REQUESTED:          0  ISSUED:          0  USEFUL:          0  USELESS:          0
DTLB USEFUL LOAD PREFETCHES:          0 PREFETCH ISSUED TO LOWER LEVEL:          0  ACCURACY: -nan
DTLB TIMELY PREFETCHES:          0 LATE PREFETCHES: 0 DROPPED PREFETCHES: 0
DTLB PREFETCHES SAME FILL-ORIGIN LEVEL: 0 DIFFERENT FILL-ORIGIN LEVEL: 0
DTLB AVERAGE MISS LATENCY: 119.43 cycles
DTLB RQ	ACCESS:    5527480	FORWARD:          0	MERGED:    2082220	TO_CACHE:    3445260

STLB TOTAL     ACCESS:      28825  HIT:      13183  MISS:      15642  HIT %:    45.7346  MISS %:    54.2654   MPKI: 0.62568
STLB LOAD TRANSLATION ACCESS:      28825  HIT:      13183  MISS:      15642  HIT %:    45.7346  MISS %:    54.2654   MPKI: 0.62568
STLB PREFETCH  REQUESTED:          0  ISSUED:          0  USEFUL:          0  USELESS:          0
STLB USEFUL LOAD PREFETCHES:          0 PREFETCH ISSUED TO LOWER LEVEL:          0  ACCURACY: -nan
STLB TIMELY PREFETCHES:          0 LATE PREFETCHES: 0 DROPPED PREFETCHES: 0
STLB PREFETCHES SAME FILL-ORIGIN LEVEL: 0 DIFFERENT FILL-ORIGIN LEVEL: 0
STLB AVERAGE MISS LATENCY: 200.184 cycles
STLB RQ	ACCESS:      28825	FORWARD:          0	MERGED:          0	TO_CACHE:      28825

STLB Hit, L1D data hit: 0
STLB Hit, L2C data hit: 0
STLB Hit, LLC data hit: 0
STLB Hit, LLC data miss: 0
STLB STLB hints to L2: 0
L1D TOTAL     ACCESS:    5445496  HIT:    3794242  MISS:    1651254  HIT %:    69.6767  MISS %:    30.3233   MPKI: 66.0501
L1D LOAD      ACCESS:    1341659  HIT:    1091453  MISS:     250206  HIT %:     81.351  MISS %:     18.649   MPKI: 10.0082
L1D RFO       ACCESS:    4103837  HIT:    2702789  MISS:    1401048  HIT %:      65.86  MISS %:      34.14   MPKI: 56.0419
L1D PREFETCH  REQUESTED:          0  ISSUED:          0  USEFUL:          0  USELESS:          0
L1D USEFUL LOAD PREFETCHES:          0 PREFETCH ISSUED TO LOWER LEVEL:          0  ACCURACY: -nan
L1D TIMELY PREFETCHES:          0 LATE PREFETCHES: 0 DROPPED PREFETCHES: 0
L1D PREFETCHES SAME FILL-ORIGIN LEVEL: 0 DIFFERENT FILL-ORIGIN LEVEL: 0
L1D AVERAGE MISS LATENCY: 340.348 cycles
L1D RQ	ACCESS:    4329200	FORWARD:          0	MERGED:    2601707	TO_CACHE:    1403435
L1D WQ	ACCESS:    4349460	FORWARD:     324058	MERGED:     225415	TO_CACHE:    4124045

L1D UNIQUE REGIONS ACCESSED: 0
L1D REGIONS CONFLICTS: 0
L1D Cross Page Prefetch Requests: 0
L1D Same Page Prefetch Requests: 0
L1D ROI Sum of L1D PQ occupancy: 0
L1D PREFETCHES PUSHED FROM L2C: 0
L1I TOTAL     ACCESS:    4425514  HIT:    4425514  MISS:          0  HIT %:        100  MISS %:          0   MPKI: 0
L1I LOAD      ACCESS:    4425514  HIT:    4425514  MISS:          0  HIT %:        100  MISS %:          0   MPKI: 0
L1I PREFETCH  REQUESTED:          0  ISSUED:          0  USEFUL:          0  USELESS:          0
L1I USEFUL LOAD PREFETCHES:          0 PREFETCH ISSUED TO LOWER LEVEL:          0  ACCURACY: -nan
L1I TIMELY PREFETCHES:          0 LATE PREFETCHES: 0 DROPPED PREFETCHES: 0
L1I PREFETCHES SAME FILL-ORIGIN LEVEL: 0 DIFFERENT FILL-ORIGIN LEVEL: 0
L1I AVERAGE MISS LATENCY: -nan cycles
L1I RQ	ACCESS:    6446677	FORWARD:          0	MERGED:    2021162	TO_CACHE:    4425515

BTB TOTAL     ACCESS:     396212  HIT:     396206  MISS:          6  HIT %:    99.9985  MISS %: 0.00151434   MPKI: 0.00024
BTB BRANCH_DIRECT_JUMP	ACCESS:      52070  HIT:      52069  MISS:          1
BTB BRANCH_INDIRECT	ACCESS:          0  HIT:          0  MISS:          0
BTB BRANCH_CONDITIONAL	ACCESS:     344142  HIT:     344137  MISS:          5
BTB BRANCH_DIRECT_CALL	ACCESS:          0  HIT:          0  MISS:          0
BTB BRANCH_INDIRECT_CALL	ACCESS:          0  HIT:          0  MISS:          0
BTB BRANCH_RETURN	ACCESS:          0  HIT:          0  MISS:          0
BTB BRANCH_OTHER ACCESS:          0  HIT:          0  MISS:          0

L2C TOTAL     ACCESS:    3343331  HIT:    2334680  MISS:    1008651  HIT %:     69.831  MISS %:     30.169   MPKI: 40.346
L2C LOAD      ACCESS:     250206  HIT:      76902  MISS:     173304  HIT %:    30.7355  MISS %:    69.2645   MPKI: 6.93216
L2C DATA LOAD MPKI: 6.93216
L2C INSTRUCTION LOAD MPKI: 0
L2C RFO       ACCESS:    1401048  HIT:     644609  MISS:     756439  HIT %:    46.0091  MISS %:    53.9909   MPKI: 30.2576
L2C PREFETCH  ACCESS:     275382  HIT:     198481  MISS:      76901  HIT %:    72.0748  MISS %:    27.9252   MPKI: 3.07604
AGUS PREFETCH L1 MISS: 0
L2C DATA PREFETCH MPKI: 3.07604
L2C INSTRUCTION PREFETCH MPKI: 0
L2C WRITEBACK ACCESS:    1401051  HIT:    1401021  MISS:         30  HIT %:    99.9979  MISS %: 0.00214125   MPKI: 0.0012
L2C LOAD TRANSLATION ACCESS:      15644  HIT:      13667  MISS:       1977  HIT %:    87.3626  MISS %:    12.6374   MPKI: 0.07908
L2C PREFETCH  REQUESTED:     593758  ISSUED:     593324  USEFUL:      76893  USELESS:         12
L2C USEFUL LOAD PREFETCHES:      76893 PREFETCH ISSUED TO LOWER LEVEL:     162183  ACCURACY: 47.4113
L2C TIMELY PREFETCHES:      76893 LATE PREFETCHES: 38870 DROPPED PREFETCHES: 0
L2C PREFETCHES SAME FILL-ORIGIN LEVEL: 115771 DIFFERENT FILL-ORIGIN LEVEL: 46412
L2C AVERAGE MISS LATENCY: 568.136 cycles
L2C RQ	ACCESS:    1666907	FORWARD:          0	MERGED:          0	TO_CACHE:    1666907
L2C WQ	ACCESS:    1401051	FORWARD:          0	MERGED:          0	TO_CACHE:    1401051
L2C PQ	ACCESS:     593324	FORWARD:          0	MERGED:      72744	TO_CACHE:     520580

L2C Instructions Evicting Data 0
L2C Translations Evicting Data 1974
L2C Data Evicting Data 1004663
L2C Instructions Evicting Instructions 0
L2C Translations Evicting Instructions 0
L2C Data Evicting Instructions 0
L2C Instructions Evicting Translations 0
L2C Translations Evicting Translations 3
L2C Data Evicting Translations 1981
L2C Dense regions hint from L2: 0
PSCL5 TOTAL     ACCESS:      15642  HIT:      15642  MISS:          0  HIT %:        100  MISS %:          0   MPKI: 0
PSCL5 LOAD TRANSLATION ACCESS:      15642  HIT:      15642  MISS:          0  HIT %:        100  MISS %:          0   MPKI: 0
PSCL5 PREFETCH  REQUESTED:          0  ISSUED:          0  USEFUL:          0  USELESS:          0
PSCL5 USEFUL LOAD PREFETCHES:          0 PREFETCH ISSUED TO LOWER LEVEL:          0  ACCURACY: -nan
PSCL5 TIMELY PREFETCHES:          0 LATE PREFETCHES: 0 DROPPED PREFETCHES: 0
PSCL5 PREFETCHES SAME FILL-ORIGIN LEVEL: 0 DIFFERENT FILL-ORIGIN LEVEL: 0

PSCL4 TOTAL     ACCESS:      15642  HIT:      15642  MISS:          0  HIT %:        100  MISS %:          0   MPKI: 0
PSCL4 LOAD TRANSLATION ACCESS:      15642  HIT:      15642  MISS:          0  HIT %:        100  MISS %:          0   MPKI: 0
PSCL4 PREFETCH  REQUESTED:          0  ISSUED:          0  USEFUL:          0  USELESS:          0
PSCL4 USEFUL LOAD PREFETCHES:          0 PREFETCH ISSUED TO LOWER LEVEL:          0  ACCURACY: -nan
PSCL4 TIMELY PREFETCHES:          0 LATE PREFETCHES: 0 DROPPED PREFETCHES: 0
PSCL4 PREFETCHES SAME FILL-ORIGIN LEVEL: 0 DIFFERENT FILL-ORIGIN LEVEL: 0

PSCL3 TOTAL     ACCESS:      15642  HIT:      15642  MISS:          0  HIT %:        100  MISS %:          0   MPKI: 0
PSCL3 LOAD TRANSLATION ACCESS:      15642  HIT:      15642  MISS:          0  HIT %:        100  MISS %:          0   MPKI: 0
PSCL3 PREFETCH  REQUESTED:          0  ISSUED:          0  USEFUL:          0  USELESS:          0
PSCL3 USEFUL LOAD PREFETCHES:          0 PREFETCH ISSUED TO LOWER LEVEL:          0  ACCURACY: -nan
PSCL3 TIMELY PREFETCHES:          0 LATE PREFETCHES: 0 DROPPED PREFETCHES: 0
PSCL3 PREFETCHES SAME FILL-ORIGIN LEVEL: 0 DIFFERENT FILL-ORIGIN LEVEL: 0

PSCL2 TOTAL     ACCESS:      15642  HIT:      15625  MISS:         17  HIT %:    99.8913  MISS %:   0.108682   MPKI: 0.00068
PSCL2 LOAD TRANSLATION ACCESS:      15642  HIT:      15625  MISS:         17  HIT %:    99.8913  MISS %:   0.108682   MPKI: 0.00068
PSCL2 PREFETCH  REQUESTED:          0  ISSUED:          0  USEFUL:          0  USELESS:          0
PSCL2 USEFUL LOAD PREFETCHES:          0 PREFETCH ISSUED TO LOWER LEVEL:          0  ACCURACY: -nan
PSCL2 TIMELY PREFETCHES:          0 LATE PREFETCHES: 0 DROPPED PREFETCHES: 0
PSCL2 PREFETCHES SAME FILL-ORIGIN LEVEL: 0 DIFFERENT FILL-ORIGIN LEVEL: 0

LLC TOTAL     ACCESS:    1789160  HIT:     786417  MISS:    1002743  HIT %:    43.9545  MISS %:    56.0455   MPKI: 40.1097
LLC LOAD      ACCESS:     134434  HIT:       4959  MISS:     129475  HIT %:     3.6888  MISS %:    96.3112   MPKI: 5.179
LLC RFO       ACCESS:     756431  HIT:       5900  MISS:     750531  HIT %:   0.779979  MISS %:      99.22   MPKI: 30.0212
LLC PREFETCH  ACCESS:     139052  HIT:      18322  MISS:     120730  HIT %:    13.1764  MISS %:    86.8236   MPKI: 4.8292
AGUS PREFETCH L1 MISS: 0
LLC WRITEBACK ACCESS:     757266  HIT:     757236  MISS:         30  HIT %:     99.996  MISS %: 0.00396162   MPKI: 0.0012
LLC LOAD TRANSLATION ACCESS:       1977  HIT:          0  MISS:       1977  HIT %:          0  MISS %:        100   MPKI: 0.07908
LLC PREFETCH  REQUESTED:          0  ISSUED:          0  USEFUL:       4959  USELESS:     114537
LLC USEFUL LOAD PREFETCHES:       4959 PREFETCH ISSUED TO LOWER LEVEL:     128929  ACCURACY: 3.8463
LLC TIMELY PREFETCHES:       4959 LATE PREFETCHES: 8199 DROPPED PREFETCHES: 0
LLC PREFETCHES SAME FILL-ORIGIN LEVEL: 35414 DIFFERENT FILL-ORIGIN LEVEL: 0
LLC AVERAGE MISS LATENCY: 561.814 cycles
LLC RQ	ACCESS:     892859	FORWARD:          0	MERGED:          0	TO_CACHE:     892851
LLC WQ	ACCESS:     757266	FORWARD:          8	MERGED:          0	TO_CACHE:     757266
LLC PQ	ACCESS:     162183	FORWARD:          0	MERGED:       1189	TO_CACHE:     160994

LLC Dense regions hint to LLC: 0

RAW hits: 1992455
Reg RAW dependents: 19499270
Loads Generated: 6321678
Loads sent to L1D: 4329200
Stores Generated: 4349455
Stores sent to L1D: 4349460
Major fault: 0 Minor fault: 19681
Allocated PAGES: 19681
Average branch resolution latency (in cycles): 69.2917
CPU 0 L2C Region based offset prefetcher final stats

DRAM Statistics
 CHANNEL 0
 RQ ROW_BUFFER_HIT:      77526  ROW_BUFFER_MISS:     925187
 DBUS_CONGESTED:          0
 WQ ROW_BUFFER_HIT:     162630  ROW_BUFFER_MISS:     588548  FULL:          0

 AVG_CONGESTED_CYCLE: -
 All warmup complete: 2
Channel 0 Bank busy for read cycles: 0
Channel 0 Bank busy for write cycles: 0
Channel 0
Rank 0
0banks busy for read cycles: 12712
0banks busy for write cycles: 0
1banks busy for read cycles: 1242552
1banks busy for write cycles: 76658
2banks busy for read cycles: 513812
2banks busy for write cycles: 76658
3banks busy for read cycles: 650633
3banks busy for write cycles: 76658
4banks busy for read cycles: 3607554
4banks busy for write cycles: 76658
5banks busy for read cycles: 4616256
5banks busy for write cycles: 76658
6banks busy for read cycles: 4915772
6banks busy for write cycles: 76714
7banks busy for read cycles: 5987149
7banks busy for write cycles: 829119
8banks busy for read cycles: 6026460
8banks busy for write cycles: 14776803

CPU 0 Branch Prediction Accuracy: 97.8416% MPKI: 0.34208 Average ROB Occupancy at Mispredict: 250.192
Branch types
NOT_BRANCH: 24604096 98.4164%
BRANCH_DIRECT_JUMP: 52070 0.20828%
BRANCH_INDIRECT: 0 0%
BRANCH_CONDITIONAL: 344150 1.3766%
BRANCH_DIRECT_CALL: 0 0%
BRANCH_INDIRECT_CALL: 0 0%
BRANCH_RETURN: 0 0%
BRANCH_OTHER: 0 0%

DRAM PAGES: 1048576
Allocated PAGES: 19681
