
*** ChampSim Multicore Out-of-Order Simulator ***

Warmup Instructions: 25000000
Simulation Instructions: 25000000
Number of CPUs: 1
LLC sets: 2048
LLC ways: 16
Off-chip DRAM Size: 4096 MB Channels: 1 Width: 64-bit Data Rate: 6400 MT/s
CPU 0 runs ../../traces/trace3.champsimtrace.xz
.xz
BTB has LRU replacement policy
ITLB has LRU replacement policy
DTLB has LRU replacement policy
STLB has LRU replacement policy
L1I has LRU replacement policy
L1D has LRU replacement policy
L2C has LRU replacement policy
LLC has LRU replacement policy
Heartbeat CPU 0 instructions: 10000003 cycles: 2500074 heartbeat IPC: 3.99988 cumulative IPC: 3.99988 (Simulation time: 0 hr 0 min 8 sec) 
Heartbeat CPU 0 instructions: 20000007 cycles: 5004038 heartbeat IPC: 3.99367 cumulative IPC: 3.99677 (Simulation time: 0 hr 0 min 16 sec) 

Warmup complete CPU 0 instructions: 25000008 cycles: 6254037 (Simulation time: 0 hr 0 min 20 sec) 

Heartbeat CPU 0 instructions: 30000005 cycles: 12219802 heartbeat IPC: 1.38585 cumulative IPC: 0.838115 (Simulation time: 0 hr 0 min 35 sec) 
Heartbeat CPU 0 instructions: 40000003 cycles: 24172599 heartbeat IPC: 0.836624 cumulative IPC: 0.83712 (Simulation time: 0 hr 1 min 5 sec) 
Heartbeat CPU 0 instructions: 50000001 cycles: 36218947 heartbeat IPC: 0.830127 cumulative IPC: 0.834309 (Simulation time: 0 hr 1 min 35 sec) 
Finished CPU 0 instructions: 25000001 cycles: 29964911 cumulative IPC: 0.834309 (Simulation time: 0 hr 1 min 35 sec) 

ChampSim completed all CPUs

Region of Interest Statistics

CPU 0 cumulative IPC: 0.834309 instructions: 25000001 cycles: 29964911
ITLB TOTAL     ACCESS:    3328835  HIT:    3328835  MISS:          0  HIT %:        100  MISS %:          0   MPKI: 0
ITLB LOAD TRANSLATION ACCESS:    3328835  HIT:    3328835  MISS:          0  HIT %:        100  MISS %:          0   MPKI: 0
ITLB PREFETCH  REQUESTED:          0  ISSUED:          0  USEFUL:          0  USELESS:          0
ITLB USEFUL LOAD PREFETCHES:          0 PREFETCH ISSUED TO LOWER LEVEL:          0  ACCURACY: -nan
ITLB TIMELY PREFETCHES:          0 LATE PREFETCHES: 0 DROPPED PREFETCHES: 0
ITLB PREFETCHES SAME FILL-ORIGIN LEVEL: 0 DIFFERENT FILL-ORIGIN LEVEL: 0
ITLB AVERAGE MISS LATENCY: -nan cycles
ITLB RQ	ACCESS:    4346502	FORWARD:          0	MERGED:    1017668	TO_CACHE:    3328834

DTLB TOTAL     ACCESS:    2619699  HIT:    2604097  MISS:      15602  HIT %:    99.4044  MISS %:   0.595565   MPKI: 0.62408
DTLB LOAD TRANSLATION ACCESS:    2619699  HIT:    2604097  MISS:      15602  HIT %:    99.4044  MISS %:   0.595565   MPKI: 0.62408
DTLB PREFETCH  REQUESTED:          0  ISSUED:          0  USEFUL:          0  USELESS:          0
DTLB USEFUL LOAD PREFETCHES:          0 PREFETCH ISSUED TO LOWER LEVEL:          0  ACCURACY: -nan
DTLB TIMELY PREFETCHES:          0 LATE PREFETCHES: 0 DROPPED PREFETCHES: 0
DTLB PREFETCHES SAME FILL-ORIGIN LEVEL: 0 DIFFERENT FILL-ORIGIN LEVEL: 0
DTLB AVERAGE MISS LATENCY: 93.9711 cycles
DTLB RQ	ACCESS:    4783800	FORWARD:          0	MERGED:    2161956	TO_CACHE:    2621844

STLB TOTAL     ACCESS:      15602  HIT:       7134  MISS:       8468  HIT %:    45.7249  MISS %:    54.2751   MPKI: 0.33872
STLB LOAD TRANSLATION ACCESS:      15602  HIT:       7134  MISS:       8468  HIT %:    45.7249  MISS %:    54.2751   MPKI: 0.33872
STLB PREFETCH  REQUESTED:          0  ISSUED:          0  USEFUL:          0  USELESS:          0
STLB USEFUL LOAD PREFETCHES:          0 PREFETCH ISSUED TO LOWER LEVEL:          0  ACCURACY: -nan
STLB TIMELY PREFETCHES:          0 LATE PREFETCHES: 0 DROPPED PREFETCHES: 0
STLB PREFETCHES SAME FILL-ORIGIN LEVEL: 0 DIFFERENT FILL-ORIGIN LEVEL: 0
STLB AVERAGE MISS LATENCY: 153.764 cycles
STLB RQ	ACCESS:      15602	FORWARD:          0	MERGED:          0	TO_CACHE:      15602

STLB Hit, L1D data hit: 0
STLB Hit, L2C data hit: 0
STLB Hit, LLC data hit: 0
STLB Hit, LLC data miss: 0
STLB STLB hints to L2: 0
L1D TOTAL     ACCESS:    4702118  HIT:    3808250  MISS:     893868  HIT %:    80.9901  MISS %:    19.0099   MPKI: 35.7547
L1D LOAD      ACCESS:    1083537  HIT:     948098  MISS:     135439  HIT %:    87.5003  MISS %:    12.4997   MPKI: 5.41756
L1D RFO       ACCESS:    3618581  HIT:    2860152  MISS:     758429  HIT %:    79.0407  MISS %:    20.9593   MPKI: 30.3372
L1D PREFETCH  REQUESTED:          0  ISSUED:          0  USEFUL:          0  USELESS:          0
L1D USEFUL LOAD PREFETCHES:          0 PREFETCH ISSUED TO LOWER LEVEL:          0  ACCURACY: -nan
L1D TIMELY PREFETCHES:          0 LATE PREFETCHES: 0 DROPPED PREFETCHES: 0
L1D PREFETCHES SAME FILL-ORIGIN LEVEL: 0 DIFFERENT FILL-ORIGIN LEVEL: 0
L1D AVERAGE MISS LATENCY: 255.167 cycles
L1D RQ	ACCESS:    3205328	FORWARD:          0	MERGED:    1781895	TO_CACHE:    1164650
L1D WQ	ACCESS:    3724072	FORWARD:     258783	MERGED:     104922	TO_CACHE:    3619150

L1D UNIQUE REGIONS ACCESSED: 0
L1D REGIONS CONFLICTS: 0
L1D Cross Page Prefetch Requests: 0
L1D Same Page Prefetch Requests: 0
L1D ROI Sum of L1D PQ occupancy: 0
L1D PREFETCHES PUSHED FROM L2C: 0
L1I TOTAL     ACCESS:    4346501  HIT:    4346501  MISS:          0  HIT %:        100  MISS %:          0   MPKI: 0
L1I LOAD      ACCESS:    4346501  HIT:    4346501  MISS:          0  HIT %:        100  MISS %:          0   MPKI: 0
L1I PREFETCH  REQUESTED:          0  ISSUED:          0  USEFUL:          0  USELESS:          0
L1I USEFUL LOAD PREFETCHES:          0 PREFETCH ISSUED TO LOWER LEVEL:          0  ACCURACY: -nan
L1I TIMELY PREFETCHES:          0 LATE PREFETCHES: 0 DROPPED PREFETCHES: 0
L1I PREFETCHES SAME FILL-ORIGIN LEVEL: 0 DIFFERENT FILL-ORIGIN LEVEL: 0
L1I AVERAGE MISS LATENCY: -nan cycles
L1I RQ	ACCESS:    6181053	FORWARD:          0	MERGED:    1834551	TO_CACHE:    4346502

BTB TOTAL     ACCESS:     268031  HIT:     268025  MISS:          6  HIT %:    99.9978  MISS %: 0.00223855   MPKI: 0.00024
BTB BRANCH_DIRECT_JUMP	ACCESS:       1334  HIT:       1333  MISS:          1
BTB BRANCH_INDIRECT	ACCESS:          0  HIT:          0  MISS:          0
BTB BRANCH_CONDITIONAL	ACCESS:     266697  HIT:     266692  MISS:          5
BTB BRANCH_DIRECT_CALL	ACCESS:          0  HIT:          0  MISS:          0
BTB BRANCH_INDIRECT_CALL	ACCESS:          0  HIT:          0  MISS:          0
BTB BRANCH_RETURN	ACCESS:          0  HIT:          0  MISS:          0
BTB BRANCH_OTHER ACCESS:          0  HIT:          0  MISS:          0

L2C TOTAL     ACCESS:    1660769  HIT:    1105843  MISS:     554926  HIT %:    66.5862  MISS %:    33.4138   MPKI: 22.197
L2C LOAD      ACCESS:     135439  HIT:          0  MISS:     135439  HIT %:          0  MISS %:        100   MPKI: 5.41756
L2C DATA LOAD MPKI: 5.41756
L2C INSTRUCTION LOAD MPKI: 0
L2C RFO       ACCESS:     758429  HIT:     340025  MISS:     418404  HIT %:    44.8328  MISS %:    55.1672   MPKI: 16.7362
L2C WRITEBACK ACCESS:     758431  HIT:     758419  MISS:         12  HIT %:    99.9984  MISS %: 0.00158221   MPKI: 0.00048
L2C LOAD TRANSLATION ACCESS:       8470  HIT:       7399  MISS:       1071  HIT %:    87.3554  MISS %:    12.6446   MPKI: 0.04284
L2C PREFETCH  REQUESTED:          0  ISSUED:          0  USEFUL:          0  USELESS:          0
L2C USEFUL LOAD PREFETCHES:          0 PREFETCH ISSUED TO LOWER LEVEL:          0  ACCURACY: -nan
L2C TIMELY PREFETCHES:          0 LATE PREFETCHES: 0 DROPPED PREFETCHES: 0
L2C PREFETCHES SAME FILL-ORIGIN LEVEL: 0 DIFFERENT FILL-ORIGIN LEVEL: 0
L2C AVERAGE MISS LATENCY: 384.72 cycles
L2C RQ	ACCESS:     902338	FORWARD:          0	MERGED:          0	TO_CACHE:     902338
L2C WQ	ACCESS:     758431	FORWARD:          0	MERGED:          0	TO_CACHE:     758431

L2C Instructions Evicting Data 0
L2C Translations Evicting Data 1061
L2C Data Evicting Data 552775
L2C Instructions Evicting Instructions 0
L2C Translations Evicting Instructions 0
L2C Data Evicting Instructions 0
L2C Instructions Evicting Translations 0
L2C Translations Evicting Translations 10
L2C Data Evicting Translations 1068
L2C Dense regions hint from L2: 0
PSCL5 TOTAL     ACCESS:       8468  HIT:       8468  MISS:          0  HIT %:        100  MISS %:          0   MPKI: 0
PSCL5 LOAD TRANSLATION ACCESS:       8468  HIT:       8468  MISS:          0  HIT %:        100  MISS %:          0   MPKI: 0
PSCL5 PREFETCH  REQUESTED:          0  ISSUED:          0  USEFUL:          0  USELESS:          0
PSCL5 USEFUL LOAD PREFETCHES:          0 PREFETCH ISSUED TO LOWER LEVEL:          0  ACCURACY: -nan
PSCL5 TIMELY PREFETCHES:          0 LATE PREFETCHES: 0 DROPPED PREFETCHES: 0
PSCL5 PREFETCHES SAME FILL-ORIGIN LEVEL: 0 DIFFERENT FILL-ORIGIN LEVEL: 0

PSCL4 TOTAL     ACCESS:       8468  HIT:       8468  MISS:          0  HIT %:        100  MISS %:          0   MPKI: 0
PSCL4 LOAD TRANSLATION ACCESS:       8468  HIT:       8468  MISS:          0  HIT %:        100  MISS %:          0   MPKI: 0
PSCL4 PREFETCH  REQUESTED:          0  ISSUED:          0  USEFUL:          0  USELESS:          0
PSCL4 USEFUL LOAD PREFETCHES:          0 PREFETCH ISSUED TO LOWER LEVEL:          0  ACCURACY: -nan
PSCL4 TIMELY PREFETCHES:          0 LATE PREFETCHES: 0 DROPPED PREFETCHES: 0
PSCL4 PREFETCHES SAME FILL-ORIGIN LEVEL: 0 DIFFERENT FILL-ORIGIN LEVEL: 0

PSCL3 TOTAL     ACCESS:       8468  HIT:       8468  MISS:          0  HIT %:        100  MISS %:          0   MPKI: 0
PSCL3 LOAD TRANSLATION ACCESS:       8468  HIT:       8468  MISS:          0  HIT %:        100  MISS %:          0   MPKI: 0
PSCL3 PREFETCH  REQUESTED:          0  ISSUED:          0  USEFUL:          0  USELESS:          0
PSCL3 USEFUL LOAD PREFETCHES:          0 PREFETCH ISSUED TO LOWER LEVEL:          0  ACCURACY: -nan
PSCL3 TIMELY PREFETCHES:          0 LATE PREFETCHES: 0 DROPPED PREFETCHES: 0
PSCL3 PREFETCHES SAME FILL-ORIGIN LEVEL: 0 DIFFERENT FILL-ORIGIN LEVEL: 0

PSCL2 TOTAL     ACCESS:       8468  HIT:       8458  MISS:         10  HIT %:    99.8819  MISS %:   0.118092   MPKI: 0.0004
PSCL2 LOAD TRANSLATION ACCESS:       8468  HIT:       8458  MISS:         10  HIT %:    99.8819  MISS %:   0.118092   MPKI: 0.0004
PSCL2 PREFETCH  REQUESTED:          0  ISSUED:          0  USEFUL:          0  USELESS:          0
PSCL2 USEFUL LOAD PREFETCHES:          0 PREFETCH ISSUED TO LOWER LEVEL:          0  ACCURACY: -nan
PSCL2 TIMELY PREFETCHES:          0 LATE PREFETCHES: 0 DROPPED PREFETCHES: 0
PSCL2 PREFETCHES SAME FILL-ORIGIN LEVEL: 0 DIFFERENT FILL-ORIGIN LEVEL: 0

LLC TOTAL     ACCESS:     973174  HIT:     430359  MISS:     542815  HIT %:    44.2222  MISS %:    55.7778   MPKI: 21.7126
LLC LOAD      ACCESS:     135439  HIT:          0  MISS:     135439  HIT %:          0  MISS %:        100   MPKI: 5.41756
LLC RFO       ACCESS:     418403  HIT:      12109  MISS:     406294  HIT %:     2.8941  MISS %:    97.1059   MPKI: 16.2518
LLC WRITEBACK ACCESS:     418261  HIT:     418250  MISS:         11  HIT %:    99.9974  MISS %: 0.00262994   MPKI: 0.00044
LLC LOAD TRANSLATION ACCESS:       1071  HIT:          0  MISS:       1071  HIT %:          0  MISS %:        100   MPKI: 0.04284
LLC PREFETCH  REQUESTED:          0  ISSUED:          0  USEFUL:          0  USELESS:          0
LLC USEFUL LOAD PREFETCHES:          0 PREFETCH ISSUED TO LOWER LEVEL:          0  ACCURACY: -nan
LLC TIMELY PREFETCHES:          0 LATE PREFETCHES: 0 DROPPED PREFETCHES: 0
LLC PREFETCHES SAME FILL-ORIGIN LEVEL: 0 DIFFERENT FILL-ORIGIN LEVEL: 0
LLC AVERAGE MISS LATENCY: 361.607 cycles
LLC RQ	ACCESS:     554914	FORWARD:          0	MERGED:          0	TO_CACHE:     554913
LLC WQ	ACCESS:     418261	FORWARD:          1	MERGED:          0	TO_CACHE:     418261

LLC Dense regions hint to LLC: 0

RAW hits: 2633662
Reg RAW dependents: 20415582
Loads Generated: 5838993
Loads sent to L1D: 3205328
Stores Generated: 3724080
Stores sent to L1D: 3724072
Major fault: 0 Minor fault: 11618
Allocated PAGES: 11618
Average branch resolution latency (in cycles): 23.7292

DRAM Statistics
 CHANNEL 0
 RQ ROW_BUFFER_HIT:      15722  ROW_BUFFER_MISS:     527082
 DBUS_CONGESTED:          0
 WQ ROW_BUFFER_HIT:     100589  ROW_BUFFER_MISS:     308289  FULL:          0

 AVG_CONGESTED_CYCLE: -
 All warmup complete: 2
Channel 0 Bank busy for read cycles: 0
Channel 0 Bank busy for write cycles: 0
Channel 0
Rank 0
0banks busy for read cycles: 26034
0banks busy for write cycles: 0
1banks busy for read cycles: 3278387
1banks busy for write cycles: 50441
2banks busy for read cycles: 528957
2banks busy for write cycles: 50537
3banks busy for read cycles: 577074
3banks busy for write cycles: 50440
4banks busy for read cycles: 7275676
4banks busy for write cycles: 50440
5banks busy for read cycles: 5448001
5banks busy for write cycles: 50440
6banks busy for read cycles: 2939331
6banks busy for write cycles: 50528
7banks busy for read cycles: 450879
7banks busy for write cycles: 461768
8banks busy for read cycles: 152274
8banks busy for write cycles: 8523705

CPU 0 Branch Prediction Accuracy: 99.8986% MPKI: 0.01088 Average ROB Occupancy at Mispredict: 293.276
Branch types
NOT_BRANCH: 24731930 98.9277%
BRANCH_DIRECT_JUMP: 1334 0.005336%
BRANCH_INDIRECT: 0 0%
BRANCH_CONDITIONAL: 266865 1.06746%
BRANCH_DIRECT_CALL: 0 0%
BRANCH_INDIRECT_CALL: 0 0%
BRANCH_RETURN: 0 0%
BRANCH_OTHER: 0 0%

DRAM PAGES: 1048576
Allocated PAGES: 11618
