
*** ChampSim Multicore Out-of-Order Simulator ***

Warmup Instructions: 25000000
Simulation Instructions: 25000000
Number of CPUs: 1
LLC sets: 2048
LLC ways: 16
Off-chip DRAM Size: 4096 MB Channels: 1 Width: 64-bit Data Rate: 6400 MT/s
CPU 0 runs ../../traces/trace3.champsimtrace.xz
.xz
BTB has LRU replacement policy
ITLB has LRU replacement policy
DTLB has LRU replacement policy
STLB has LRU replacement policy
L1I has LRU replacement policy
L1D has LRU replacement policy
CPU 0 Region based L2 offset prefetcher
L2C has LRU replacement policy
LLC has LRU replacement policy
Heartbeat CPU 0 instructions: 10000003 cycles: 2500074 heartbeat IPC: 3.99988 cumulative IPC: 3.99988 (Simulation time: 0 hr 0 min 13 sec) 
Heartbeat CPU 0 instructions: 20000007 cycles: 5004038 heartbeat IPC: 3.99367 cumulative IPC: 3.99677 (Simulation time: 0 hr 0 min 21 sec) 

Warmup complete CPU 0 instructions: 25000008 cycles: 6254037 (Simulation time: 0 hr 0 min 25 sec) 

Heartbeat CPU 0 instructions: 30000005 cycles: 10598854 heartbeat IPC: 1.78737 cumulative IPC: 1.1508 (Simulation time: 0 hr 0 min 37 sec) 
Heartbeat CPU 0 instructions: 40000003 cycles: 19379495 heartbeat IPC: 1.13887 cumulative IPC: 1.14282 (Simulation time: 0 hr 1 min 2 sec) 
Heartbeat CPU 0 instructions: 50000004 cycles: 28161440 heartbeat IPC: 1.1387 cumulative IPC: 1.14117 (Simulation time: 0 hr 1 min 27 sec) 
Finished CPU 0 instructions: 25000004 cycles: 21907404 cumulative IPC: 1.14117 (Simulation time: 0 hr 1 min 27 sec) 

ChampSim completed all CPUs

Region of Interest Statistics

CPU 0 cumulative IPC: 1.14117 instructions: 25000004 cycles: 21907404
ITLB TOTAL     ACCESS:    3274075  HIT:    3274075  MISS:          0  HIT %:        100  MISS %:          0   MPKI: 0
ITLB LOAD TRANSLATION ACCESS:    3274075  HIT:    3274075  MISS:          0  HIT %:        100  MISS %:          0   MPKI: 0
ITLB PREFETCH  REQUESTED:          0  ISSUED:          0  USEFUL:          0  USELESS:          0
ITLB USEFUL LOAD PREFETCHES:          0 PREFETCH ISSUED TO LOWER LEVEL:          0  ACCURACY: -nan
ITLB TIMELY PREFETCHES:          0 LATE PREFETCHES: 0 DROPPED PREFETCHES: 0
ITLB PREFETCHES SAME FILL-ORIGIN LEVEL: 0 DIFFERENT FILL-ORIGIN LEVEL: 0
ITLB AVERAGE MISS LATENCY: -nan cycles
ITLB RQ	ACCESS:    4280236	FORWARD:          0	MERGED:    1006162	TO_CACHE:    3274074

DTLB TOTAL     ACCESS:    2998878  HIT:    2983276  MISS:      15602  HIT %:    99.4797  MISS %:   0.520261   MPKI: 0.62408
DTLB LOAD TRANSLATION ACCESS:    2998878  HIT:    2983276  MISS:      15602  HIT %:    99.4797  MISS %:   0.520261   MPKI: 0.62408
DTLB PREFETCH  REQUESTED:          0  ISSUED:          0  USEFUL:          0  USELESS:          0
DTLB USEFUL LOAD PREFETCHES:          0 PREFETCH ISSUED TO LOWER LEVEL:          0  ACCURACY: -nan
DTLB TIMELY PREFETCHES:          0 LATE PREFETCHES: 0 DROPPED PREFETCHES: 0
DTLB PREFETCHES SAME FILL-ORIGIN LEVEL: 0 DIFFERENT FILL-ORIGIN LEVEL: 0
DTLB AVERAGE MISS LATENCY: 82.0094 cycles
DTLB RQ	ACCESS:    5219645	FORWARD:          0	MERGED:    2218571	TO_CACHE:    3001074

STLB TOTAL     ACCESS:      15602  HIT:       7134  MISS:       8468  HIT %:    45.7249  MISS %:    54.2751   MPKI: 0.33872
STLB LOAD TRANSLATION ACCESS:      15602  HIT:       7134  MISS:       8468  HIT %:    45.7249  MISS %:    54.2751   MPKI: 0.33872
STLB PREFETCH  REQUESTED:          0  ISSUED:          0  USEFUL:          0  USELESS:          0
STLB USEFUL LOAD PREFETCHES:          0 PREFETCH ISSUED TO LOWER LEVEL:          0  ACCURACY: -nan
STLB TIMELY PREFETCHES:          0 LATE PREFETCHES: 0 DROPPED PREFETCHES: 0
STLB PREFETCHES SAME FILL-ORIGIN LEVEL: 0 DIFFERENT FILL-ORIGIN LEVEL: 0
STLB AVERAGE MISS LATENCY: 134.503 cycles
STLB RQ	ACCESS:      15602	FORWARD:          0	MERGED:          0	TO_CACHE:      15602

STLB Hit, L1D data hit: 0
STLB Hit, L2C data hit: 0
STLB Hit, LLC data hit: 0
STLB Hit, LLC data miss: 0
STLB STLB hints to L2: 0
L1D TOTAL     ACCESS:    5155805  HIT:    4261939  MISS:     893866  HIT %:    82.6629  MISS %:    17.3371   MPKI: 35.7546
L1D LOAD      ACCESS:    1514725  HIT:    1379286  MISS:     135439  HIT %:    91.0585  MISS %:    8.94149   MPKI: 5.41756
L1D RFO       ACCESS:    3641080  HIT:    2882653  MISS:     758427  HIT %:    79.1703  MISS %:    20.8297   MPKI: 30.3371
L1D PREFETCH  REQUESTED:          0  ISSUED:          0  USEFUL:          0  USELESS:          0
L1D USEFUL LOAD PREFETCHES:          0 PREFETCH ISSUED TO LOWER LEVEL:          0  ACCURACY: -nan
L1D TIMELY PREFETCHES:          0 LATE PREFETCHES: 0 DROPPED PREFETCHES: 0
L1D PREFETCHES SAME FILL-ORIGIN LEVEL: 0 DIFFERENT FILL-ORIGIN LEVEL: 0
L1D AVERAGE MISS LATENCY: 164.514 cycles
L1D RQ	ACCESS:    3738001	FORWARD:          0	MERGED:    1956135	TO_CACHE:    1577872
L1D WQ	ACCESS:    3724072	FORWARD:     203994	MERGED:      82299	TO_CACHE:    3641773

L1D UNIQUE REGIONS ACCESSED: 0
L1D REGIONS CONFLICTS: 0
L1D Cross Page Prefetch Requests: 0
L1D Same Page Prefetch Requests: 0
L1D ROI Sum of L1D PQ occupancy: 0
L1D PREFETCHES PUSHED FROM L2C: 0
L1I TOTAL     ACCESS:    4280235  HIT:    4280235  MISS:          0  HIT %:        100  MISS %:          0   MPKI: 0
L1I LOAD      ACCESS:    4280235  HIT:    4280235  MISS:          0  HIT %:        100  MISS %:          0   MPKI: 0
L1I PREFETCH  REQUESTED:          0  ISSUED:          0  USEFUL:          0  USELESS:          0
L1I USEFUL LOAD PREFETCHES:          0 PREFETCH ISSUED TO LOWER LEVEL:          0  ACCURACY: -nan
L1I TIMELY PREFETCHES:          0 LATE PREFETCHES: 0 DROPPED PREFETCHES: 0
L1I PREFETCHES SAME FILL-ORIGIN LEVEL: 0 DIFFERENT FILL-ORIGIN LEVEL: 0
L1I AVERAGE MISS LATENCY: -nan cycles
L1I RQ	ACCESS:    6070587	FORWARD:          0	MERGED:    1790351	TO_CACHE:    4280236

BTB TOTAL     ACCESS:     268029  HIT:     268023  MISS:          6  HIT %:    99.9978  MISS %: 0.00223856   MPKI: 0.00024
BTB BRANCH_DIRECT_JUMP	ACCESS:       1334  HIT:       1333  MISS:          1
BTB BRANCH_INDIRECT	ACCESS:          0  HIT:          0  MISS:          0
BTB BRANCH_CONDITIONAL	ACCESS:     266695  HIT:     266690  MISS:          5
BTB BRANCH_DIRECT_CALL	ACCESS:          0  HIT:          0  MISS:          0
BTB BRANCH_INDIRECT_CALL	ACCESS:          0  HIT:          0  MISS:          0
BTB BRANCH_RETURN	ACCESS:          0  HIT:          0  MISS:          0
BTB BRANCH_OTHER ACCESS:          0  HIT:          0  MISS:          0

L2C TOTAL     ACCESS:    2032984  HIT:    1478073  MISS:     554911  HIT %:    72.7046  MISS %:    27.2954   MPKI: 22.1964
L2C LOAD      ACCESS:     135439  HIT:      41180  MISS:      94259  HIT %:    30.4048  MISS %:    69.5952   MPKI: 3.77036
L2C DATA LOAD MPKI: 3.77036
L2C INSTRUCTION LOAD MPKI: 0
L2C RFO       ACCESS:     758427  HIT:     340051  MISS:     418376  HIT %:    44.8364  MISS %:    55.1636   MPKI: 16.735
L2C PREFETCH  ACCESS:     236784  HIT:     195596  MISS:      41188  HIT %:    82.6052  MISS %:    17.3948   MPKI: 1.64752
AGUS PREFETCH L1 MISS: 0
L2C DATA PREFETCH MPKI: 1.64752
L2C INSTRUCTION PREFETCH MPKI: 0
L2C WRITEBACK ACCESS:     893865  HIT:     893847  MISS:         18  HIT %:     99.998  MISS %: 0.00201373   MPKI: 0.00072
L2C LOAD TRANSLATION ACCESS:       8469  HIT:       7399  MISS:       1070  HIT %:    87.3657  MISS %:    12.6343   MPKI: 0.0428
L2C PREFETCH  REQUESTED:     385460  ISSUED:     385460  USEFUL:      41177  USELESS:          6
L2C USEFUL LOAD PREFETCHES:      41177 PREFETCH ISSUED TO LOWER LEVEL:      71477  ACCURACY: 57.6087
L2C TIMELY PREFETCHES:      41177 LATE PREFETCHES: 29411 DROPPED PREFETCHES: 0
L2C PREFETCHES SAME FILL-ORIGIN LEVEL: 70599 DIFFERENT FILL-ORIGIN LEVEL: 878
L2C AVERAGE MISS LATENCY: 256.879 cycles
L2C RQ	ACCESS:     902340	FORWARD:          0	MERGED:          0	TO_CACHE:     902340
L2C WQ	ACCESS:     893866	FORWARD:          0	MERGED:          0	TO_CACHE:     893866
L2C PQ	ACCESS:     385460	FORWARD:          0	MERGED:      75124	TO_CACHE:     310336

L2C Instructions Evicting Data 0
L2C Translations Evicting Data 1060
L2C Data Evicting Data 552756
L2C Instructions Evicting Instructions 0
L2C Translations Evicting Instructions 0
L2C Data Evicting Instructions 0
L2C Instructions Evicting Translations 0
L2C Translations Evicting Translations 10
L2C Data Evicting Translations 1067
L2C Dense regions hint from L2: 0
PSCL5 TOTAL     ACCESS:       8468  HIT:       8468  MISS:          0  HIT %:        100  MISS %:          0   MPKI: 0
PSCL5 LOAD TRANSLATION ACCESS:       8468  HIT:       8468  MISS:          0  HIT %:        100  MISS %:          0   MPKI: 0
PSCL5 PREFETCH  REQUESTED:          0  ISSUED:          0  USEFUL:          0  USELESS:          0
PSCL5 USEFUL LOAD PREFETCHES:          0 PREFETCH ISSUED TO LOWER LEVEL:          0  ACCURACY: -nan
PSCL5 TIMELY PREFETCHES:          0 LATE PREFETCHES: 0 DROPPED PREFETCHES: 0
PSCL5 PREFETCHES SAME FILL-ORIGIN LEVEL: 0 DIFFERENT FILL-ORIGIN LEVEL: 0

PSCL4 TOTAL     ACCESS:       8468  HIT:       8468  MISS:          0  HIT %:        100  MISS %:          0   MPKI: 0
PSCL4 LOAD TRANSLATION ACCESS:       8468  HIT:       8468  MISS:          0  HIT %:        100  MISS %:          0   MPKI: 0
PSCL4 PREFETCH  REQUESTED:          0  ISSUED:          0  USEFUL:          0  USELESS:          0
PSCL4 USEFUL LOAD PREFETCHES:          0 PREFETCH ISSUED TO LOWER LEVEL:          0  ACCURACY: -nan
PSCL4 TIMELY PREFETCHES:          0 LATE PREFETCHES: 0 DROPPED PREFETCHES: 0
PSCL4 PREFETCHES SAME FILL-ORIGIN LEVEL: 0 DIFFERENT FILL-ORIGIN LEVEL: 0

PSCL3 TOTAL     ACCESS:       8468  HIT:       8468  MISS:          0  HIT %:        100  MISS %:          0   MPKI: 0
PSCL3 LOAD TRANSLATION ACCESS:       8468  HIT:       8468  MISS:          0  HIT %:        100  MISS %:          0   MPKI: 0
PSCL3 PREFETCH  REQUESTED:          0  ISSUED:          0  USEFUL:          0  USELESS:          0
PSCL3 USEFUL LOAD PREFETCHES:          0 PREFETCH ISSUED TO LOWER LEVEL:          0  ACCURACY: -nan
PSCL3 TIMELY PREFETCHES:          0 LATE PREFETCHES: 0 DROPPED PREFETCHES: 0
PSCL3 PREFETCHES SAME FILL-ORIGIN LEVEL: 0 DIFFERENT FILL-ORIGIN LEVEL: 0

PSCL2 TOTAL     ACCESS:       8468  HIT:       8459  MISS:          9  HIT %:    99.8937  MISS %:   0.106282   MPKI: 0.00036
PSCL2 LOAD TRANSLATION ACCESS:       8468  HIT:       8459  MISS:          9  HIT %:    99.8937  MISS %:   0.106282   MPKI: 0.00036
PSCL2 PREFETCH  REQUESTED:          0  ISSUED:          0  USEFUL:          0  USELESS:          0
PSCL2 USEFUL LOAD PREFETCHES:          0 PREFETCH ISSUED TO LOWER LEVEL:          0  ACCURACY: -nan
PSCL2 TIMELY PREFETCHES:          0 LATE PREFETCHES: 0 DROPPED PREFETCHES: 0
PSCL2 PREFETCHES SAME FILL-ORIGIN LEVEL: 0 DIFFERENT FILL-ORIGIN LEVEL: 0

LLC TOTAL     ACCESS:    1110179  HIT:     567357  MISS:     542822  HIT %:     51.105  MISS %:     48.895   MPKI: 21.7129
LLC LOAD      ACCESS:      64848  HIT:        150  MISS:      64698  HIT %:    0.23131  MISS %:    99.7687   MPKI: 2.58792
LLC RFO       ACCESS:     418375  HIT:      12084  MISS:     406291  HIT %:    2.88832  MISS %:    97.1117   MPKI: 16.2516
LLC PREFETCH  ACCESS:      70976  HIT:        230  MISS:      70746  HIT %:   0.324053  MISS %:    99.6759   MPKI: 2.82984
AGUS PREFETCH L1 MISS: 0
LLC WRITEBACK ACCESS:     554910  HIT:     554893  MISS:         17  HIT %:    99.9969  MISS %: 0.00306356   MPKI: 0.00068
LLC LOAD TRANSLATION ACCESS:       1070  HIT:          0  MISS:       1070  HIT %:          0  MISS %:        100   MPKI: 0.0428
LLC PREFETCH  REQUESTED:          0  ISSUED:          0  USEFUL:        147  USELESS:      69712
LLC USEFUL LOAD PREFETCHES:        147 PREFETCH ISSUED TO LOWER LEVEL:      71073  ACCURACY: 0.20683
LLC TIMELY PREFETCHES:        147 LATE PREFETCHES: 327 DROPPED PREFETCHES: 0
LLC PREFETCHES SAME FILL-ORIGIN LEVEL: 734 DIFFERENT FILL-ORIGIN LEVEL: 0
LLC AVERAGE MISS LATENCY: 231.356 cycles
LLC RQ	ACCESS:     484298	FORWARD:          0	MERGED:          0	TO_CACHE:     484297
LLC WQ	ACCESS:     554911	FORWARD:          1	MERGED:          0	TO_CACHE:     554911
LLC PQ	ACCESS:      71477	FORWARD:          0	MERGED:         23	TO_CACHE:      71454

LLC Dense regions hint to LLC: 0

RAW hits: 2100963
Reg RAW dependents: 19914247
Loads Generated: 5838965
Loads sent to L1D: 3738001
Stores Generated: 3724073
Stores sent to L1D: 3724072
Major fault: 0 Minor fault: 11618
Allocated PAGES: 11618
Average branch resolution latency (in cycles): 28
CPU 0 L2C Region based offset prefetcher final stats

DRAM Statistics
 CHANNEL 0
 RQ ROW_BUFFER_HIT:      58099  ROW_BUFFER_MISS:     484707
 DBUS_CONGESTED:          0
 WQ ROW_BUFFER_HIT:          0  ROW_BUFFER_MISS:         17  FULL:          0

 AVG_CONGESTED_CYCLE: -
 All warmup complete: 2
Channel 0 Bank busy for read cycles: 0
Channel 0 Bank busy for write cycles: 0
Channel 0
Rank 0
0banks busy for read cycles: 2303617
0banks busy for write cycles: 7
1banks busy for read cycles: 2431651
1banks busy for write cycles: 2748
2banks busy for read cycles: 1488636
2banks busy for write cycles: 3083
3banks busy for read cycles: 2945146
3banks busy for write cycles: 203
4banks busy for read cycles: 5525390
4banks busy for write cycles: 6
5banks busy for read cycles: 4551940
5banks busy for write cycles: 6
6banks busy for read cycles: 2190278
6banks busy for write cycles: 381
7banks busy for read cycles: 349777
7banks busy for write cycles: 0
8banks busy for read cycles: 114536
8banks busy for write cycles: 0

CPU 0 Branch Prediction Accuracy: 99.8986% MPKI: 0.01088 Average ROB Occupancy at Mispredict: 139.794
Branch types
NOT_BRANCH: 24731822 98.9273%
BRANCH_DIRECT_JUMP: 1334 0.005336%
BRANCH_INDIRECT: 0 0%
BRANCH_CONDITIONAL: 266863 1.06745%
BRANCH_DIRECT_CALL: 0 0%
BRANCH_INDIRECT_CALL: 0 0%
BRANCH_RETURN: 0 0%
BRANCH_OTHER: 0 0%

DRAM PAGES: 1048576
Allocated PAGES: 11618
