
*** ChampSim Multicore Out-of-Order Simulator ***

Warmup Instructions: 25000000
Simulation Instructions: 25000000
Number of CPUs: 1
LLC sets: 2048
LLC ways: 16
Off-chip DRAM Size: 4096 MB Channels: 1 Width: 64-bit Data Rate: 6400 MT/s
CPU 0 runs ../../traces/trace2.champsimtrace.xz
.xz
BTB has LRU replacement policy
ITLB has LRU replacement policy
DTLB has LRU replacement policy
STLB has LRU replacement policy
L1I has LRU replacement policy
L1D has LRU replacement policy
CPU 0 Region based L2 offset prefetcher
L2C has LRU replacement policy
LLC has LRU replacement policy
Heartbeat CPU 0 instructions: 10000000 cycles: 2546032 heartbeat IPC: 3.92768 cumulative IPC: 3.92768 (Simulation time: 0 hr 0 min 17 sec) 
Heartbeat CPU 0 instructions: 20000007 cycles: 5090275 heartbeat IPC: 3.93044 cumulative IPC: 3.92906 (Simulation time: 0 hr 0 min 28 sec) 

Warmup complete CPU 0 instructions: 25000002 cycles: 6361429 (Simulation time: 0 hr 0 min 34 sec) 

Heartbeat CPU 0 instructions: 30000000 cycles: 12821616 heartbeat IPC: 1.29344 cumulative IPC: 0.773971 (Simulation time: 0 hr 0 min 55 sec) 
Heartbeat CPU 0 instructions: 40000005 cycles: 25682666 heartbeat IPC: 0.777542 cumulative IPC: 0.776348 (Simulation time: 0 hr 1 min 35 sec) 
Heartbeat CPU 0 instructions: 50000004 cycles: 38763074 heartbeat IPC: 0.764502 cumulative IPC: 0.771566 (Simulation time: 0 hr 2 min 16 sec) 
Finished CPU 0 instructions: 25000002 cycles: 32401645 cumulative IPC: 0.771566 (Simulation time: 0 hr 2 min 16 sec) 

ChampSim completed all CPUs

Region of Interest Statistics

CPU 0 cumulative IPC: 0.771566 instructions: 25000002 cycles: 32401645
ITLB TOTAL     ACCESS:    3517923  HIT:    3517923  MISS:          0  HIT %:        100  MISS %:          0   MPKI: 0
ITLB LOAD TRANSLATION ACCESS:    3517923  HIT:    3517923  MISS:          0  HIT %:        100  MISS %:          0   MPKI: 0
ITLB PREFETCH  REQUESTED:          0  ISSUED:          0  USEFUL:          0  USELESS:          0
ITLB USEFUL LOAD PREFETCHES:          0 PREFETCH ISSUED TO LOWER LEVEL:          0  ACCURACY: -nan
ITLB TIMELY PREFETCHES:          0 LATE PREFETCHES: 0 DROPPED PREFETCHES: 0
ITLB PREFETCHES SAME FILL-ORIGIN LEVEL: 0 DIFFERENT FILL-ORIGIN LEVEL: 0
ITLB AVERAGE MISS LATENCY: -nan cycles
ITLB RQ	ACCESS:    4475102	FORWARD:          0	MERGED:     957180	TO_CACHE:    3517922

DTLB TOTAL     ACCESS:    3674203  HIT:    3640155  MISS:      34048  HIT %:    99.0733  MISS %:   0.926677   MPKI: 1.36192
DTLB LOAD TRANSLATION ACCESS:    3674203  HIT:    3640155  MISS:      34048  HIT %:    99.0733  MISS %:   0.926677   MPKI: 1.36192
DTLB PREFETCH  REQUESTED:          0  ISSUED:          0  USEFUL:          0  USELESS:          0
DTLB USEFUL LOAD PREFETCHES:          0 PREFETCH ISSUED TO LOWER LEVEL:          0  ACCURACY: -nan
DTLB TIMELY PREFETCHES:          0 LATE PREFETCHES: 0 DROPPED PREFETCHES: 0
DTLB PREFETCHES SAME FILL-ORIGIN LEVEL: 0 DIFFERENT FILL-ORIGIN LEVEL: 0
DTLB AVERAGE MISS LATENCY: 84.642 cycles
DTLB RQ	ACCESS:    5869274	FORWARD:          0	MERGED:    2177279	TO_CACHE:    3691995

STLB TOTAL     ACCESS:      34048  HIT:      15572  MISS:      18476  HIT %:    45.7354  MISS %:    54.2646   MPKI: 0.73904
STLB LOAD TRANSLATION ACCESS:      34048  HIT:      15572  MISS:      18476  HIT %:    45.7354  MISS %:    54.2646   MPKI: 0.73904
STLB PREFETCH  REQUESTED:          0  ISSUED:          0  USEFUL:          0  USELESS:          0
STLB USEFUL LOAD PREFETCHES:          0 PREFETCH ISSUED TO LOWER LEVEL:          0  ACCURACY: -nan
STLB TIMELY PREFETCHES:          0 LATE PREFETCHES: 0 DROPPED PREFETCHES: 0
STLB PREFETCHES SAME FILL-ORIGIN LEVEL: 0 DIFFERENT FILL-ORIGIN LEVEL: 0
STLB AVERAGE MISS LATENCY: 138.55 cycles
STLB RQ	ACCESS:      34048	FORWARD:          0	MERGED:          0	TO_CACHE:      34048

STLB Hit, L1D data hit: 0
STLB Hit, L2C data hit: 0
STLB Hit, LLC data hit: 0
STLB Hit, LLC data miss: 0
STLB STLB hints to L2: 0
L1D TOTAL     ACCESS:    5749449  HIT:    3798900  MISS:    1950549  HIT %:    66.0742  MISS %:    33.9258   MPKI: 78.022
L1D LOAD      ACCESS:    1324925  HIT:    1029376  MISS:     295549  HIT %:    77.6932  MISS %:    22.3068   MPKI: 11.822
L1D RFO       ACCESS:    4424524  HIT:    2769524  MISS:    1655000  HIT %:    62.5948  MISS %:    37.4052   MPKI: 66.2
L1D PREFETCH  REQUESTED:          0  ISSUED:          0  USEFUL:          0  USELESS:          0
L1D USEFUL LOAD PREFETCHES:          0 PREFETCH ISSUED TO LOWER LEVEL:          0  ACCURACY: -nan
L1D TIMELY PREFETCHES:          0 LATE PREFETCHES: 0 DROPPED PREFETCHES: 0
L1D PREFETCHES SAME FILL-ORIGIN LEVEL: 0 DIFFERENT FILL-ORIGIN LEVEL: 0
L1D AVERAGE MISS LATENCY: 187.825 cycles
L1D RQ	ACCESS:    4445720	FORWARD:          0	MERGED:    2814385	TO_CACHE:    1416525
L1D WQ	ACCESS:    4596609	FORWARD:     214810	MERGED:     143860	TO_CACHE:    4452749

L1D UNIQUE REGIONS ACCESSED: 0
L1D REGIONS CONFLICTS: 0
L1D Cross Page Prefetch Requests: 0
L1D Same Page Prefetch Requests: 0
L1D ROI Sum of L1D PQ occupancy: 0
L1D PREFETCHES PUSHED FROM L2C: 0
L1I TOTAL     ACCESS:    4475101  HIT:    4475101  MISS:          0  HIT %:        100  MISS %:          0   MPKI: 0
L1I LOAD      ACCESS:    4475101  HIT:    4475101  MISS:          0  HIT %:        100  MISS %:          0   MPKI: 0
L1I PREFETCH  REQUESTED:          0  ISSUED:          0  USEFUL:          0  USELESS:          0
L1I USEFUL LOAD PREFETCHES:          0 PREFETCH ISSUED TO LOWER LEVEL:          0  ACCURACY: -nan
L1I TIMELY PREFETCHES:          0 LATE PREFETCHES: 0 DROPPED PREFETCHES: 0
L1I PREFETCHES SAME FILL-ORIGIN LEVEL: 0 DIFFERENT FILL-ORIGIN LEVEL: 0
L1I AVERAGE MISS LATENCY: -nan cycles
L1I RQ	ACCESS:    6513574	FORWARD:          0	MERGED:    2038472	TO_CACHE:    4475102

BTB TOTAL     ACCESS:     446811  HIT:     446805  MISS:          6  HIT %:    99.9987  MISS %: 0.00134285   MPKI: 0.00024
BTB BRANCH_DIRECT_JUMP	ACCESS:      72121  HIT:      72120  MISS:          1
BTB BRANCH_INDIRECT	ACCESS:          0  HIT:          0  MISS:          0
BTB BRANCH_CONDITIONAL	ACCESS:     374690  HIT:     374685  MISS:          5
BTB BRANCH_DIRECT_CALL	ACCESS:          0  HIT:          0  MISS:          0
BTB BRANCH_INDIRECT_CALL	ACCESS:          0  HIT:          0  MISS:          0
BTB BRANCH_RETURN	ACCESS:          0  HIT:          0  MISS:          0
BTB BRANCH_OTHER ACCESS:          0  HIT:          0  MISS:          0

L2C TOTAL     ACCESS:    4243965  HIT:    3051239  MISS:    1192726  HIT %:     71.896  MISS %:     28.104   MPKI: 47.709
L2C LOAD      ACCESS:     295549  HIT:      43250  MISS:     252299  HIT %:    14.6338  MISS %:    85.3662   MPKI: 10.092
L2C DATA LOAD MPKI: 10.092
L2C INSTRUCTION LOAD MPKI: 0
L2C RFO       ACCESS:    1655000  HIT:     760225  MISS:     894775  HIT %:     45.935  MISS %:     54.065   MPKI: 35.791
L2C PREFETCH  ACCESS:     324389  HIT:     281139  MISS:      43250  HIT %:    86.6672  MISS %:    13.3328   MPKI: 1.73
AGUS PREFETCH L1 MISS: 0
L2C DATA PREFETCH MPKI: 1.73
L2C INSTRUCTION PREFETCH MPKI: 0
L2C WRITEBACK ACCESS:    1950549  HIT:    1950482  MISS:         67  HIT %:    99.9966  MISS %: 0.00343493   MPKI: 0.00268
L2C LOAD TRANSLATION ACCESS:      18478  HIT:      16143  MISS:       2335  HIT %:    87.3634  MISS %:    12.6366   MPKI: 0.0934
L2C PREFETCH  REQUESTED:     854964  ISSUED:     854833  USEFUL:      43229  USELESS:         21
L2C USEFUL LOAD PREFETCHES:      43229 PREFETCH ISSUED TO LOWER LEVEL:     142280  ACCURACY: 30.383
L2C TIMELY PREFETCHES:      43229 LATE PREFETCHES: 49426 DROPPED PREFETCHES: 0
L2C PREFETCHES SAME FILL-ORIGIN LEVEL: 92676 DIFFERENT FILL-ORIGIN LEVEL: 49604
L2C AVERAGE MISS LATENCY: 290.003 cycles
L2C RQ	ACCESS:    1969032	FORWARD:          0	MERGED:          0	TO_CACHE:    1969032
L2C WQ	ACCESS:    1950549	FORWARD:          0	MERGED:          0	TO_CACHE:    1950549
L2C PQ	ACCESS:     854833	FORWARD:          0	MERGED:     155337	TO_CACHE:     699496

L2C Instructions Evicting Data 0
L2C Translations Evicting Data 2309
L2C Data Evicting Data 1188013
L2C Instructions Evicting Instructions 0
L2C Translations Evicting Instructions 0
L2C Data Evicting Instructions 0
L2C Instructions Evicting Translations 0
L2C Translations Evicting Translations 26
L2C Data Evicting Translations 2311
L2C Dense regions hint from L2: 0
PSCL5 TOTAL     ACCESS:      18476  HIT:      18476  MISS:          0  HIT %:        100  MISS %:          0   MPKI: 0
PSCL5 LOAD TRANSLATION ACCESS:      18476  HIT:      18476  MISS:          0  HIT %:        100  MISS %:          0   MPKI: 0
PSCL5 PREFETCH  REQUESTED:          0  ISSUED:          0  USEFUL:          0  USELESS:          0
PSCL5 USEFUL LOAD PREFETCHES:          0 PREFETCH ISSUED TO LOWER LEVEL:          0  ACCURACY: -nan
PSCL5 TIMELY PREFETCHES:          0 LATE PREFETCHES: 0 DROPPED PREFETCHES: 0
PSCL5 PREFETCHES SAME FILL-ORIGIN LEVEL: 0 DIFFERENT FILL-ORIGIN LEVEL: 0

PSCL4 TOTAL     ACCESS:      18476  HIT:      18476  MISS:          0  HIT %:        100  MISS %:          0   MPKI: 0
PSCL4 LOAD TRANSLATION ACCESS:      18476  HIT:      18476  MISS:          0  HIT %:        100  MISS %:          0   MPKI: 0
PSCL4 PREFETCH  REQUESTED:          0  ISSUED:          0  USEFUL:          0  USELESS:          0
PSCL4 USEFUL LOAD PREFETCHES:          0 PREFETCH ISSUED TO LOWER LEVEL:          0  ACCURACY: -nan
PSCL4 TIMELY PREFETCHES:          0 LATE PREFETCHES: 0 DROPPED PREFETCHES: 0
PSCL4 PREFETCHES SAME FILL-ORIGIN LEVEL: 0 DIFFERENT FILL-ORIGIN LEVEL: 0

PSCL3 TOTAL     ACCESS:      18476  HIT:      18476  MISS:          0  HIT %:        100  MISS %:          0   MPKI: 0
PSCL3 LOAD TRANSLATION ACCESS:      18476  HIT:      18476  MISS:          0  HIT %:        100  MISS %:          0   MPKI: 0
PSCL3 PREFETCH  REQUESTED:          0  ISSUED:          0  USEFUL:          0  USELESS:          0
PSCL3 USEFUL LOAD PREFETCHES:          0 PREFETCH ISSUED TO LOWER LEVEL:          0  ACCURACY: -nan
PSCL3 TIMELY PREFETCHES:          0 LATE PREFETCHES: 0 DROPPED PREFETCHES: 0
PSCL3 PREFETCHES SAME FILL-ORIGIN LEVEL: 0 DIFFERENT FILL-ORIGIN LEVEL: 0

PSCL2 TOTAL     ACCESS:      18476  HIT:      18456  MISS:         20  HIT %:    99.8918  MISS %:   0.108249   MPKI: 0.0008
PSCL2 LOAD TRANSLATION ACCESS:      18476  HIT:      18456  MISS:         20  HIT %:    99.8918  MISS %:   0.108249   MPKI: 0.0008
PSCL2 PREFETCH  REQUESTED:          0  ISSUED:          0  USEFUL:          0  USELESS:          0
PSCL2 USEFUL LOAD PREFETCHES:          0 PREFETCH ISSUED TO LOWER LEVEL:          0  ACCURACY: -nan
PSCL2 TIMELY PREFETCHES:          0 LATE PREFETCHES: 0 DROPPED PREFETCHES: 0
PSCL2 PREFETCHES SAME FILL-ORIGIN LEVEL: 0 DIFFERENT FILL-ORIGIN LEVEL: 0

LLC TOTAL     ACCESS:    2401270  HIT:    1216755  MISS:    1184515  HIT %:    50.6713  MISS %:    49.3287   MPKI: 47.3806
LLC LOAD      ACCESS:     202873  HIT:       8749  MISS:     194124  HIT %:    4.31255  MISS %:    95.6874   MPKI: 7.76496
LLC RFO       ACCESS:     894768  HIT:       8190  MISS:     886578  HIT %:   0.915321  MISS %:    99.0847   MPKI: 35.4631
LLC PREFETCH  ACCESS:     108568  HIT:       7145  MISS:     101423  HIT %:    6.58113  MISS %:    93.4189   MPKI: 4.05692
AGUS PREFETCH L1 MISS: 0
LLC WRITEBACK ACCESS:    1192726  HIT:    1192671  MISS:         55  HIT %:    99.9954  MISS %: 0.00461129   MPKI: 0.0022
LLC LOAD TRANSLATION ACCESS:       2335  HIT:          0  MISS:       2335  HIT %:          0  MISS %:        100   MPKI: 0.0934
LLC PREFETCH  REQUESTED:          0  ISSUED:          0  USEFUL:       8748  USELESS:      92621
LLC USEFUL LOAD PREFETCHES:       8748 PREFETCH ISSUED TO LOWER LEVEL:     125907  ACCURACY: 6.94799
LLC TIMELY PREFETCHES:       8748 LATE PREFETCHES: 24484 DROPPED PREFETCHES: 0
LLC PREFETCHES SAME FILL-ORIGIN LEVEL: 40413 DIFFERENT FILL-ORIGIN LEVEL: 0
LLC AVERAGE MISS LATENCY: 265.137 cycles
LLC RQ	ACCESS:    1099988	FORWARD:          0	MERGED:          0	TO_CACHE:    1099981
LLC WQ	ACCESS:    1192726	FORWARD:          7	MERGED:          0	TO_CACHE:    1192726
LLC PQ	ACCESS:     142280	FORWARD:          0	MERGED:       1458	TO_CACHE:     140822

LLC Dense regions hint to LLC: 0

RAW hits: 2066602
Reg RAW dependents: 19363125
Loads Generated: 6512322
Loads sent to L1D: 4445720
Stores Generated: 4596601
Stores sent to L1D: 4596609
Major fault: 0 Minor fault: 21636
Allocated PAGES: 21636
Average branch resolution latency (in cycles): 47.7293
CPU 0 L2C Region based offset prefetcher final stats

DRAM Statistics
 CHANNEL 0
 RQ ROW_BUFFER_HIT:     196084  ROW_BUFFER_MISS:     988378
 DBUS_CONGESTED:          3
 WQ ROW_BUFFER_HIT:          3  ROW_BUFFER_MISS:         52  FULL:          0

 AVG_CONGESTED_CYCLE: 5
 All warmup complete: 2
Channel 0 Bank busy for read cycles: 0
Channel 0 Bank busy for write cycles: 0
Channel 0
Rank 0
0banks busy for read cycles: 1551114
0banks busy for write cycles: 27
1banks busy for read cycles: 1867121
1banks busy for write cycles: 25494
2banks busy for read cycles: 1086443
2banks busy for write cycles: 7029
3banks busy for read cycles: 2165129
3banks busy for write cycles: 3945
4banks busy for read cycles: 4910304
4banks busy for write cycles: 2920
5banks busy for read cycles: 6089005
5banks busy for write cycles: 1272
6banks busy for read cycles: 7440151
6banks busy for write cycles: 0
7banks busy for read cycles: 5210504
7banks busy for write cycles: 0
8banks busy for read cycles: 2041188
8banks busy for write cycles: 0

CPU 0 Branch Prediction Accuracy: 97.0469% MPKI: 0.5278 Average ROB Occupancy at Mispredict: 253.709
Branch types
NOT_BRANCH: 24553135 98.2125%
BRANCH_DIRECT_JUMP: 72121 0.288484%
BRANCH_INDIRECT: 0 0%
BRANCH_CONDITIONAL: 374692 1.49877%
BRANCH_DIRECT_CALL: 0 0%
BRANCH_INDIRECT_CALL: 0 0%
BRANCH_RETURN: 0 0%
BRANCH_OTHER: 0 0%

DRAM PAGES: 1048576
Allocated PAGES: 21636
