
*** ChampSim Multicore Out-of-Order Simulator ***

Warmup Instructions: 25000000
Simulation Instructions: 25000000
Number of CPUs: 1
LLC sets: 2048
LLC ways: 16
Off-chip DRAM Size: 4096 MB Channels: 1 Width: 64-bit Data Rate: 6400 MT/s
CPU 0 runs ../../traces/trace1.champsimtrace.xz
.xz
BTB has LRU replacement policy
ITLB has LRU replacement policy
DTLB has LRU replacement policy
STLB has LRU replacement policy
L1I has LRU replacement policy
L1D has LRU replacement policy
CPU 0 Region based L2 offset prefetcher
L2C has LRU replacement policy
LLC has LRU replacement policy
Heartbeat CPU 0 instructions: 10000000 cycles: 2548483 heartbeat IPC: 3.9239 cumulative IPC: 3.9239 (Simulation time: 0 hr 0 min 15 sec) 
Heartbeat CPU 0 instructions: 20000001 cycles: 5092441 heartbeat IPC: 3.93088 cumulative IPC: 3.92739 (Simulation time: 0 hr 0 min 26 sec) 

Warmup complete CPU 0 instructions: 25000008 cycles: 6361079 (Simulation time: 0 hr 0 min 32 sec) 

Heartbeat CPU 0 instructions: 30000007 cycles: 12338395 heartbeat IPC: 1.38008 cumulative IPC: 0.836496 (Simulation time: 0 hr 0 min 50 sec) 
Heartbeat CPU 0 instructions: 40000002 cycles: 24219601 heartbeat IPC: 0.841665 cumulative IPC: 0.839935 (Simulation time: 0 hr 1 min 27 sec) 
Heartbeat CPU 0 instructions: 50000006 cycles: 35762054 heartbeat IPC: 0.866367 cumulative IPC: 0.850312 (Simulation time: 0 hr 2 min 3 sec) 
Finished CPU 0 instructions: 25000004 cycles: 29400989 cumulative IPC: 0.850312 (Simulation time: 0 hr 2 min 3 sec) 

ChampSim completed all CPUs

Region of Interest Statistics

CPU 0 cumulative IPC: 0.850312 instructions: 25000004 cycles: 29400989
ITLB TOTAL     ACCESS:    3451228  HIT:    3451228  MISS:          0  HIT %:        100  MISS %:          0   MPKI: 0
ITLB LOAD TRANSLATION ACCESS:    3451228  HIT:    3451228  MISS:          0  HIT %:        100  MISS %:          0   MPKI: 0
ITLB PREFETCH  REQUESTED:          0  ISSUED:          0  USEFUL:          0  USELESS:          0
ITLB USEFUL LOAD PREFETCHES:          0 PREFETCH ISSUED TO LOWER LEVEL:          0  ACCURACY: -nan
ITLB TIMELY PREFETCHES:          0 LATE PREFETCHES: 0 DROPPED PREFETCHES: 0
ITLB PREFETCHES SAME FILL-ORIGIN LEVEL: 0 DIFFERENT FILL-ORIGIN LEVEL: 0
ITLB AVERAGE MISS LATENCY: -nan cycles
ITLB RQ	ACCESS:    4423023	FORWARD:          0	MERGED:     971795	TO_CACHE:    3451228

DTLB TOTAL     ACCESS:    3455376  HIT:    3426551  MISS:      28825  HIT %:    99.1658  MISS %:   0.834207   MPKI: 1.153
DTLB LOAD TRANSLATION ACCESS:    3455376  HIT:    3426551  MISS:      28825  HIT %:    99.1658  MISS %:   0.834207   MPKI: 1.153
DTLB PREFETCH  REQUESTED:          0  ISSUED:          0  USEFUL:          0  USELESS:          0
DTLB USEFUL LOAD PREFETCHES:          0 PREFETCH ISSUED TO LOWER LEVEL:          0  ACCURACY: -nan
DTLB TIMELY PREFETCHES:          0 LATE PREFETCHES: 0 DROPPED PREFETCHES: 0
DTLB PREFETCHES SAME FILL-ORIGIN LEVEL: 0 DIFFERENT FILL-ORIGIN LEVEL: 0
DTLB AVERAGE MISS LATENCY: 83.9038 cycles
DTLB RQ	ACCESS:    5657501	FORWARD:          0	MERGED:    2190249	TO_CACHE:    3467252

STLB TOTAL     ACCESS:      28825  HIT:      13183  MISS:      15642  HIT %:    45.7346  MISS %:    54.2654   MPKI: 0.62568
STLB LOAD TRANSLATION ACCESS:      28825  HIT:      13183  MISS:      15642  HIT %:    45.7346  MISS %:    54.2654   MPKI: 0.62568
STLB PREFETCH  REQUESTED:          0  ISSUED:          0  USEFUL:          0  USELESS:          0
STLB USEFUL LOAD PREFETCHES:          0 PREFETCH ISSUED TO LOWER LEVEL:          0  ACCURACY: -nan
STLB TIMELY PREFETCHES:          0 LATE PREFETCHES: 0 DROPPED PREFETCHES: 0
STLB PREFETCHES SAME FILL-ORIGIN LEVEL: 0 DIFFERENT FILL-ORIGIN LEVEL: 0
STLB AVERAGE MISS LATENCY: 136.45 cycles
STLB RQ	ACCESS:      28825	FORWARD:          0	MERGED:          0	TO_CACHE:      28825

STLB Hit, L1D data hit: 0
STLB Hit, L2C data hit: 0
STLB Hit, LLC data hit: 0
STLB Hit, LLC data miss: 0
STLB STLB hints to L2: 0
L1D TOTAL     ACCESS:    5554329  HIT:    3903068  MISS:    1651261  HIT %:    70.2707  MISS %:    29.7293   MPKI: 66.0504
L1D LOAD      ACCESS:    1348570  HIT:    1098365  MISS:     250205  HIT %:    81.4466  MISS %:    18.5534   MPKI: 10.0082
L1D RFO       ACCESS:    4205759  HIT:    2804703  MISS:    1401056  HIT %:    66.6872  MISS %:    33.3128   MPKI: 56.0422
L1D PREFETCH  REQUESTED:          0  ISSUED:          0  USEFUL:          0  USELESS:          0
L1D USEFUL LOAD PREFETCHES:          0 PREFETCH ISSUED TO LOWER LEVEL:          0  ACCURACY: -nan
L1D TIMELY PREFETCHES:          0 LATE PREFETCHES: 0 DROPPED PREFETCHES: 0
L1D PREFETCHES SAME FILL-ORIGIN LEVEL: 0 DIFFERENT FILL-ORIGIN LEVEL: 0
L1D AVERAGE MISS LATENCY: 183.77 cycles
L1D RQ	ACCESS:    4238951	FORWARD:          0	MERGED:    2594853	TO_CACHE:    1431746
L1D WQ	ACCESS:    4349460	FORWARD:     212352	MERGED:     123705	TO_CACHE:    4225755

L1D UNIQUE REGIONS ACCESSED: 0
L1D REGIONS CONFLICTS: 0
L1D Cross Page Prefetch Requests: 0
L1D Same Page Prefetch Requests: 0
L1D ROI Sum of L1D PQ occupancy: 0
L1D PREFETCHES PUSHED FROM L2C: 0
L1I TOTAL     ACCESS:    4423022  HIT:    4423022  MISS:          0  HIT %:        100  MISS %:          0   MPKI: 0
L1I LOAD      ACCESS:    4423022  HIT:    4423022  MISS:          0  HIT %:        100  MISS %:          0   MPKI: 0
L1I PREFETCH  REQUESTED:          0  ISSUED:          0  USEFUL:          0  USELESS:          0
L1I USEFUL LOAD PREFETCHES:          0 PREFETCH ISSUED TO LOWER LEVEL:          0  ACCURACY: -nan
L1I TIMELY PREFETCHES:          0 LATE PREFETCHES: 0 DROPPED PREFETCHES: 0
L1I PREFETCHES SAME FILL-ORIGIN LEVEL: 0 DIFFERENT FILL-ORIGIN LEVEL: 0
L1I AVERAGE MISS LATENCY: -nan cycles
L1I RQ	ACCESS:    6388764	FORWARD:          0	MERGED:    1965741	TO_CACHE:    4423023

BTB TOTAL     ACCESS:     396212  HIT:     396206  MISS:          6  HIT %:    99.9985  MISS %: 0.00151434   MPKI: 0.00024
BTB BRANCH_DIRECT_JUMP	ACCESS:      52070  HIT:      52069  MISS:          1
BTB BRANCH_INDIRECT	ACCESS:          0  HIT:          0  MISS:          0
BTB BRANCH_CONDITIONAL	ACCESS:     344142  HIT:     344137  MISS:          5
BTB BRANCH_DIRECT_CALL	ACCESS:          0  HIT:          0  MISS:          0
BTB BRANCH_INDIRECT_CALL	ACCESS:          0  HIT:          0  MISS:          0
BTB BRANCH_RETURN	ACCESS:          0  HIT:          0  MISS:          0
BTB BRANCH_OTHER ACCESS:          0  HIT:          0  MISS:          0

L2C TOTAL     ACCESS:    3621528  HIT:    2613182  MISS:    1008346  HIT %:    72.1569  MISS %:    27.8431   MPKI: 40.3338
L2C LOAD      ACCESS:     250205  HIT:      42609  MISS:     207596  HIT %:    17.0296  MISS %:    82.9704   MPKI: 8.30384
L2C DATA LOAD MPKI: 8.30384
L2C INSTRUCTION LOAD MPKI: 0
L2C RFO       ACCESS:    1401056  HIT:     644926  MISS:     756130  HIT %:    46.0314  MISS %:    53.9686   MPKI: 30.2452
L2C PREFETCH  ACCESS:     303362  HIT:     260766  MISS:      42596  HIT %:    85.9587  MISS %:    14.0413   MPKI: 1.70384
AGUS PREFETCH L1 MISS: 0
L2C DATA PREFETCH MPKI: 1.70384
L2C INSTRUCTION PREFETCH MPKI: 0
L2C WRITEBACK ACCESS:    1651261  HIT:    1651214  MISS:         47  HIT %:    99.9972  MISS %: 0.00284631   MPKI: 0.00188
L2C LOAD TRANSLATION ACCESS:      15644  HIT:      13667  MISS:       1977  HIT %:    87.3626  MISS %:    12.6374   MPKI: 0.07908
L2C PREFETCH  REQUESTED:     722702  ISSUED:     722540  USEFUL:      42584  USELESS:         21
L2C USEFUL LOAD PREFETCHES:      42584 PREFETCH ISSUED TO LOWER LEVEL:     120882  ACCURACY: 35.2277
L2C TIMELY PREFETCHES:      42584 LATE PREFETCHES: 43978 DROPPED PREFETCHES: 0
L2C PREFETCHES SAME FILL-ORIGIN LEVEL: 86574 DIFFERENT FILL-ORIGIN LEVEL: 34308
L2C AVERAGE MISS LATENCY: 285.009 cycles
L2C RQ	ACCESS:    1666906	FORWARD:          0	MERGED:          0	TO_CACHE:    1666906
L2C WQ	ACCESS:    1651261	FORWARD:          0	MERGED:          0	TO_CACHE:    1651261
L2C PQ	ACCESS:     722540	FORWARD:          0	MERGED:     133255	TO_CACHE:     589285

L2C Instructions Evicting Data 0
L2C Translations Evicting Data 1974
L2C Data Evicting Data 1004340
L2C Instructions Evicting Instructions 0
L2C Translations Evicting Instructions 0
L2C Data Evicting Instructions 0
L2C Instructions Evicting Translations 0
L2C Translations Evicting Translations 3
L2C Data Evicting Translations 1982
L2C Dense regions hint from L2: 0
PSCL5 TOTAL     ACCESS:      15642  HIT:      15642  MISS:          0  HIT %:        100  MISS %:          0   MPKI: 0
PSCL5 LOAD TRANSLATION ACCESS:      15642  HIT:      15642  MISS:          0  HIT %:        100  MISS %:          0   MPKI: 0
PSCL5 PREFETCH  REQUESTED:          0  ISSUED:          0  USEFUL:          0  USELESS:          0
PSCL5 USEFUL LOAD PREFETCHES:          0 PREFETCH ISSUED TO LOWER LEVEL:          0  ACCURACY: -nan
PSCL5 TIMELY PREFETCHES:          0 LATE PREFETCHES: 0 DROPPED PREFETCHES: 0
PSCL5 PREFETCHES SAME FILL-ORIGIN LEVEL: 0 DIFFERENT FILL-ORIGIN LEVEL: 0

PSCL4 TOTAL     ACCESS:      15642  HIT:      15642  MISS:          0  HIT %:        100  MISS %:          0   MPKI: 0
PSCL4 LOAD TRANSLATION ACCESS:      15642  HIT:      15642  MISS:          0  HIT %:        100  MISS %:          0   MPKI: 0
PSCL4 PREFETCH  REQUESTED:          0  ISSUED:          0  USEFUL:          0  USELESS:          0
PSCL4 USEFUL LOAD PREFETCHES:          0 PREFETCH ISSUED TO LOWER LEVEL:          0  ACCURACY: -nan
PSCL4 TIMELY PREFETCHES:          0 LATE PREFETCHES: 0 DROPPED PREFETCHES: 0
PSCL4 PREFETCHES SAME FILL-ORIGIN LEVEL: 0 DIFFERENT FILL-ORIGIN LEVEL: 0

PSCL3 TOTAL     ACCESS:      15642  HIT:      15642  MISS:          0  HIT %:        100  MISS %:          0   MPKI: 0
PSCL3 LOAD TRANSLATION ACCESS:      15642  HIT:      15642  MISS:          0  HIT %:        100  MISS %:          0   MPKI: 0
PSCL3 PREFETCH  REQUESTED:          0  ISSUED:          0  USEFUL:          0  USELESS:          0
PSCL3 USEFUL LOAD PREFETCHES:          0 PREFETCH ISSUED TO LOWER LEVEL:          0  ACCURACY: -nan
PSCL3 TIMELY PREFETCHES:          0 LATE PREFETCHES: 0 DROPPED PREFETCHES: 0
PSCL3 PREFETCHES SAME FILL-ORIGIN LEVEL: 0 DIFFERENT FILL-ORIGIN LEVEL: 0

PSCL2 TOTAL     ACCESS:      15642  HIT:      15625  MISS:         17  HIT %:    99.8913  MISS %:   0.108682   MPKI: 0.00068
PSCL2 LOAD TRANSLATION ACCESS:      15642  HIT:      15625  MISS:         17  HIT %:    99.8913  MISS %:   0.108682   MPKI: 0.00068
PSCL2 PREFETCH  REQUESTED:          0  ISSUED:          0  USEFUL:          0  USELESS:          0
PSCL2 USEFUL LOAD PREFETCHES:          0 PREFETCH ISSUED TO LOWER LEVEL:          0  ACCURACY: -nan
PSCL2 TIMELY PREFETCHES:          0 LATE PREFETCHES: 0 DROPPED PREFETCHES: 0
PSCL2 PREFETCHES SAME FILL-ORIGIN LEVEL: 0 DIFFERENT FILL-ORIGIN LEVEL: 0

LLC TOTAL     ACCESS:    2027574  HIT:    1024820  MISS:    1002754  HIT %:    50.5441  MISS %:    49.4559   MPKI: 40.1102
LLC LOAD      ACCESS:     163618  HIT:       6140  MISS:     157478  HIT %:    3.75264  MISS %:    96.2474   MPKI: 6.29912
LLC RFO       ACCESS:     756116  HIT:       5577  MISS:     750539  HIT %:   0.737585  MISS %:    99.2624   MPKI: 30.0216
LLC PREFETCH  ACCESS:      97517  HIT:       4803  MISS:      92714  HIT %:     4.9253  MISS %:    95.0747   MPKI: 3.70856
AGUS PREFETCH L1 MISS: 0
LLC WRITEBACK ACCESS:    1008346  HIT:    1008300  MISS:         46  HIT %:    99.9954  MISS %: 0.00456193   MPKI: 0.00184
LLC LOAD TRANSLATION ACCESS:       1977  HIT:          0  MISS:       1977  HIT %:          0  MISS %:        100   MPKI: 0.07908
LLC PREFETCH  REQUESTED:          0  ISSUED:          0  USEFUL:       6140  USELESS:      85878
LLC USEFUL LOAD PREFETCHES:       6140 PREFETCH ISSUED TO LOWER LEVEL:     110032  ACCURACY: 5.58019
LLC TIMELY PREFETCHES:       6140 LATE PREFETCHES: 17318 DROPPED PREFETCHES: 0
LLC PREFETCHES SAME FILL-ORIGIN LEVEL: 28246 DIFFERENT FILL-ORIGIN LEVEL: 0
LLC AVERAGE MISS LATENCY: 259.171 cycles
LLC RQ	ACCESS:     921726	FORWARD:          0	MERGED:          0	TO_CACHE:     921712
LLC WQ	ACCESS:    1008346	FORWARD:         14	MERGED:          0	TO_CACHE:    1008346
LLC PQ	ACCESS:     120882	FORWARD:          0	MERGED:        872	TO_CACHE:     120010

LLC Dense regions hint to LLC: 0

RAW hits: 2082704
Reg RAW dependents: 19549956
Loads Generated: 6321679
Loads sent to L1D: 4238951
Stores Generated: 4349455
Stores sent to L1D: 4349460
Major fault: 0 Minor fault: 19681
Allocated PAGES: 19681
Average branch resolution latency (in cycles): 50.8629
CPU 0 L2C Region based offset prefetcher final stats

DRAM Statistics
 CHANNEL 0
 RQ ROW_BUFFER_HIT:     159306  ROW_BUFFER_MISS:     843402
 DBUS_CONGESTED:          1
 WQ ROW_BUFFER_HIT:          6  ROW_BUFFER_MISS:         40  FULL:          0

 AVG_CONGESTED_CYCLE: 2
 All warmup complete: 2
Channel 0 Bank busy for read cycles: 0
Channel 0 Bank busy for write cycles: 0
Channel 0
Rank 0
0banks busy for read cycles: 1779319
0banks busy for write cycles: 19
1banks busy for read cycles: 2059901
1banks busy for write cycles: 18207
2banks busy for read cycles: 1137455
2banks busy for write cycles: 9597
3banks busy for read cycles: 2368045
3banks busy for write cycles: 8924
4banks busy for read cycles: 5095797
4banks busy for write cycles: 521
5banks busy for read cycles: 5643774
5banks busy for write cycles: 719
6banks busy for read cycles: 5974153
6banks busy for write cycles: 0
7banks busy for read cycles: 3843868
7banks busy for write cycles: 0
8banks busy for read cycles: 1460691
8banks busy for write cycles: 0

CPU 0 Branch Prediction Accuracy: 97.8416% MPKI: 0.34208 Average ROB Occupancy at Mispredict: 253.025
Branch types
NOT_BRANCH: 24604096 98.4164%
BRANCH_DIRECT_JUMP: 52070 0.20828%
BRANCH_INDIRECT: 0 0%
BRANCH_CONDITIONAL: 344150 1.3766%
BRANCH_DIRECT_CALL: 0 0%
BRANCH_INDIRECT_CALL: 0 0%
BRANCH_RETURN: 0 0%
BRANCH_OTHER: 0 0%

DRAM PAGES: 1048576
Allocated PAGES: 19681
