
*** ChampSim Multicore Out-of-Order Simulator ***

Warmup Instructions: 25000000
Simulation Instructions: 25000000
Number of CPUs: 1
LLC sets: 2048
LLC ways: 16
Off-chip DRAM Size: 4096 MB Channels: 1 Width: 64-bit Data Rate: 6400 MT/s
CPU 0 runs ../../traces/trace4.champsimtrace.xz
.xz
BTB has LRU replacement policy
ITLB has LRU replacement policy
DTLB has LRU replacement policy
STLB has LRU replacement policy
L1I has LRU replacement policy
L1D has LRU replacement policy
CPU 0 Region based L2 offset prefetcher
L2C has LRU replacement policy
LLC has LRU replacement policy
Heartbeat CPU 0 instructions: 10000007 cycles: 2547013 heartbeat IPC: 3.92617 cumulative IPC: 3.92617 (Simulation time: 0 hr 0 min 17 sec) 
Heartbeat CPU 0 instructions: 20000003 cycles: 5090688 heartbeat IPC: 3.93132 cumulative IPC: 3.92874 (Simulation time: 0 hr 0 min 29 sec) 

Warmup complete CPU 0 instructions: 25000001 cycles: 6365358 (Simulation time: 0 hr 0 min 35 sec) 

Heartbeat CPU 0 instructions: 30000000 cycles: 12743777 heartbeat IPC: 1.30666 cumulative IPC: 0.783893 (Simulation time: 0 hr 0 min 56 sec) 
Heartbeat CPU 0 instructions: 40000000 cycles: 25746304 heartbeat IPC: 0.769081 cumulative IPC: 0.773956 (Simulation time: 0 hr 1 min 36 sec) 
Heartbeat CPU 0 instructions: 50000001 cycles: 38764214 heartbeat IPC: 0.768173 cumulative IPC: 0.771632 (Simulation time: 0 hr 2 min 16 sec) 
Finished CPU 0 instructions: 25000000 cycles: 32398856 cumulative IPC: 0.771632 (Simulation time: 0 hr 2 min 16 sec) 

ChampSim completed all CPUs

Region of Interest Statistics

CPU 0 cumulative IPC: 0.771632 instructions: 25000000 cycles: 32398856
ITLB TOTAL     ACCESS:    3525191  HIT:    3525191  MISS:          0  HIT %:        100  MISS %:          0   MPKI: 0
ITLB LOAD TRANSLATION ACCESS:    3525191  HIT:    3525191  MISS:          0  HIT %:        100  MISS %:          0   MPKI: 0
ITLB PREFETCH  REQUESTED:          0  ISSUED:          0  USEFUL:          0  USELESS:          0
ITLB USEFUL LOAD PREFETCHES:          0 PREFETCH ISSUED TO LOWER LEVEL:          0  ACCURACY: -nan
ITLB TIMELY PREFETCHES:          0 LATE PREFETCHES: 0 DROPPED PREFETCHES: 0
ITLB PREFETCHES SAME FILL-ORIGIN LEVEL: 0 DIFFERENT FILL-ORIGIN LEVEL: 0
ITLB AVERAGE MISS LATENCY: -nan cycles
ITLB RQ	ACCESS:    4483147	FORWARD:          0	MERGED:     957956	TO_CACHE:    3525191

DTLB TOTAL     ACCESS:    3667508  HIT:    3633586  MISS:      33922  HIT %:    99.0751  MISS %:   0.924933   MPKI: 1.35688
DTLB LOAD TRANSLATION ACCESS:    3667508  HIT:    3633586  MISS:      33922  HIT %:    99.0751  MISS %:   0.924933   MPKI: 1.35688
DTLB PREFETCH  REQUESTED:          0  ISSUED:          0  USEFUL:          0  USELESS:          0
DTLB USEFUL LOAD PREFETCHES:          0 PREFETCH ISSUED TO LOWER LEVEL:          0  ACCURACY: -nan
DTLB TIMELY PREFETCHES:          0 LATE PREFETCHES: 0 DROPPED PREFETCHES: 0
DTLB PREFETCHES SAME FILL-ORIGIN LEVEL: 0 DIFFERENT FILL-ORIGIN LEVEL: 0
DTLB AVERAGE MISS LATENCY: 85.2741 cycles
DTLB RQ	ACCESS:    5839619	FORWARD:          0	MERGED:    2154281	TO_CACHE:    3685338

STLB TOTAL     ACCESS:      33922  HIT:      15518  MISS:      18404  HIT %:    45.7461  MISS %:    54.2539   MPKI: 0.73616
STLB LOAD TRANSLATION ACCESS:      33922  HIT:      15518  MISS:      18404  HIT %:    45.7461  MISS %:    54.2539   MPKI: 0.73616
STLB PREFETCH  REQUESTED:          0  ISSUED:          0  USEFUL:          0  USELESS:          0
STLB USEFUL LOAD PREFETCHES:          0 PREFETCH ISSUED TO LOWER LEVEL:          0  ACCURACY: -nan
STLB TIMELY PREFETCHES:          0 LATE PREFETCHES: 0 DROPPED PREFETCHES: 0
STLB PREFETCHES SAME FILL-ORIGIN LEVEL: 0 DIFFERENT FILL-ORIGIN LEVEL: 0
STLB AVERAGE MISS LATENCY: 139.166 cycles
STLB RQ	ACCESS:      33922	FORWARD:          0	MERGED:          0	TO_CACHE:      33922

STLB Hit, L1D data hit: 0
STLB Hit, L2C data hit: 0
STLB Hit, LLC data hit: 0
STLB Hit, LLC data miss: 0
STLB STLB hints to L2: 0
L1D TOTAL     ACCESS:    5719066  HIT:    3775973  MISS:    1943093  HIT %:    66.0243  MISS %:    33.9757   MPKI: 77.7237
L1D LOAD      ACCESS:    1298745  HIT:    1004289  MISS:     294456  HIT %:    77.3277  MISS %:    22.6723   MPKI: 11.7782
L1D RFO       ACCESS:    4420321  HIT:    2771684  MISS:    1648637  HIT %:    62.7032  MISS %:    37.2968   MPKI: 65.9455
L1D PREFETCH  REQUESTED:          0  ISSUED:          0  USEFUL:          0  USELESS:          0
L1D USEFUL LOAD PREFETCHES:          0 PREFETCH ISSUED TO LOWER LEVEL:          0  ACCURACY: -nan
L1D TIMELY PREFETCHES:          0 LATE PREFETCHES: 0 DROPPED PREFETCHES: 0
L1D PREFETCHES SAME FILL-ORIGIN LEVEL: 0 DIFFERENT FILL-ORIGIN LEVEL: 0
L1D AVERAGE MISS LATENCY: 187.349 cycles
L1D RQ	ACCESS:    4429042	FORWARD:          0	MERGED:    2824310	TO_CACHE:    1390547
L1D WQ	ACCESS:    4590390	FORWARD:     214185	MERGED:     141318	TO_CACHE:    4449072

L1D UNIQUE REGIONS ACCESSED: 0
L1D REGIONS CONFLICTS: 0
L1D Cross Page Prefetch Requests: 0
L1D Same Page Prefetch Requests: 0
L1D ROI Sum of L1D PQ occupancy: 0
L1D PREFETCHES PUSHED FROM L2C: 0
L1I TOTAL     ACCESS:    4483146  HIT:    4483146  MISS:          0  HIT %:        100  MISS %:          0   MPKI: 0
L1I LOAD      ACCESS:    4483146  HIT:    4483146  MISS:          0  HIT %:        100  MISS %:          0   MPKI: 0
L1I PREFETCH  REQUESTED:          0  ISSUED:          0  USEFUL:          0  USELESS:          0
L1I USEFUL LOAD PREFETCHES:          0 PREFETCH ISSUED TO LOWER LEVEL:          0  ACCURACY: -nan
L1I TIMELY PREFETCHES:          0 LATE PREFETCHES: 0 DROPPED PREFETCHES: 0
L1I PREFETCHES SAME FILL-ORIGIN LEVEL: 0 DIFFERENT FILL-ORIGIN LEVEL: 0
L1I AVERAGE MISS LATENCY: -nan cycles
L1I RQ	ACCESS:    6521276	FORWARD:          0	MERGED:    2038129	TO_CACHE:    4483147

BTB TOTAL     ACCESS:     445540  HIT:     445534  MISS:          6  HIT %:    99.9987  MISS %: 0.00134668   MPKI: 0.00024
BTB BRANCH_DIRECT_JUMP	ACCESS:      71616  HIT:      71615  MISS:          1
BTB BRANCH_INDIRECT	ACCESS:          0  HIT:          0  MISS:          0
BTB BRANCH_CONDITIONAL	ACCESS:     373924  HIT:     373919  MISS:          5
BTB BRANCH_DIRECT_CALL	ACCESS:          0  HIT:          0  MISS:          0
BTB BRANCH_INDIRECT_CALL	ACCESS:          0  HIT:          0  MISS:          0
BTB BRANCH_RETURN	ACCESS:          0  HIT:          0  MISS:          0
BTB BRANCH_OTHER ACCESS:          0  HIT:          0  MISS:          0

L2C TOTAL     ACCESS:    4221059  HIT:    3031732  MISS:    1189327  HIT %:     71.824  MISS %:     28.176   MPKI: 47.5731
L2C LOAD      ACCESS:     294456  HIT:      42189  MISS:     252267  HIT %:    14.3278  MISS %:    85.6722   MPKI: 10.0907
L2C DATA LOAD MPKI: 10.0907
L2C INSTRUCTION LOAD MPKI: 0
L2C RFO       ACCESS:    1648637  HIT:     756182  MISS:     892455  HIT %:    45.8671  MISS %:    54.1329   MPKI: 35.6982
L2C PREFETCH  ACCESS:     316467  HIT:     274296  MISS:      42171  HIT %:    86.6744  MISS %:    13.3256   MPKI: 1.68684
AGUS PREFETCH L1 MISS: 0
L2C DATA PREFETCH MPKI: 1.68684
L2C INSTRUCTION PREFETCH MPKI: 0
L2C WRITEBACK ACCESS:    1943093  HIT:    1942985  MISS:        108  HIT %:    99.9944  MISS %: 0.00555815   MPKI: 0.00432
L2C LOAD TRANSLATION ACCESS:      18406  HIT:      16080  MISS:       2326  HIT %:    87.3628  MISS %:    12.6372   MPKI: 0.09304
L2C PREFETCH  REQUESTED:     851657  ISSUED:     851504  USEFUL:      42120  USELESS:         51
L2C USEFUL LOAD PREFETCHES:      42120 PREFETCH ISSUED TO LOWER LEVEL:     127743  ACCURACY: 32.9725
L2C TIMELY PREFETCHES:      42120 LATE PREFETCHES: 37117 DROPPED PREFETCHES: 0
L2C PREFETCHES SAME FILL-ORIGIN LEVEL: 79288 DIFFERENT FILL-ORIGIN LEVEL: 48455
L2C AVERAGE MISS LATENCY: 288.863 cycles
L2C RQ	ACCESS:    1961513	FORWARD:          0	MERGED:          0	TO_CACHE:    1961513
L2C WQ	ACCESS:    1943093	FORWARD:          0	MERGED:          0	TO_CACHE:    1943093
L2C PQ	ACCESS:     851504	FORWARD:          0	MERGED:     167709	TO_CACHE:     683795

L2C Instructions Evicting Data 0
L2C Translations Evicting Data 2294
L2C Data Evicting Data 1184599
L2C Instructions Evicting Instructions 0
L2C Translations Evicting Instructions 0
L2C Data Evicting Instructions 0
L2C Instructions Evicting Translations 0
L2C Translations Evicting Translations 32
L2C Data Evicting Translations 2294
L2C Dense regions hint from L2: 0
PSCL5 TOTAL     ACCESS:      18404  HIT:      18404  MISS:          0  HIT %:        100  MISS %:          0   MPKI: 0
PSCL5 LOAD TRANSLATION ACCESS:      18404  HIT:      18404  MISS:          0  HIT %:        100  MISS %:          0   MPKI: 0
PSCL5 PREFETCH  REQUESTED:          0  ISSUED:          0  USEFUL:          0  USELESS:          0
PSCL5 USEFUL LOAD PREFETCHES:          0 PREFETCH ISSUED TO LOWER LEVEL:          0  ACCURACY: -nan
PSCL5 TIMELY PREFETCHES:          0 LATE PREFETCHES: 0 DROPPED PREFETCHES: 0
PSCL5 PREFETCHES SAME FILL-ORIGIN LEVEL: 0 DIFFERENT FILL-ORIGIN LEVEL: 0

PSCL4 TOTAL     ACCESS:      18404  HIT:      18404  MISS:          0  HIT %:        100  MISS %:          0   MPKI: 0
PSCL4 LOAD TRANSLATION ACCESS:      18404  HIT:      18404  MISS:          0  HIT %:        100  MISS %:          0   MPKI: 0
PSCL4 PREFETCH  REQUESTED:          0  ISSUED:          0  USEFUL:          0  USELESS:          0
PSCL4 USEFUL LOAD PREFETCHES:          0 PREFETCH ISSUED TO LOWER LEVEL:          0  ACCURACY: -nan
PSCL4 TIMELY PREFETCHES:          0 LATE PREFETCHES: 0 DROPPED PREFETCHES: 0
PSCL4 PREFETCHES SAME FILL-ORIGIN LEVEL: 0 DIFFERENT FILL-ORIGIN LEVEL: 0

PSCL3 TOTAL     ACCESS:      18404  HIT:      18404  MISS:          0  HIT %:        100  MISS %:          0   MPKI: 0
PSCL3 LOAD TRANSLATION ACCESS:      18404  HIT:      18404  MISS:          0  HIT %:        100  MISS %:          0   MPKI: 0
PSCL3 PREFETCH  REQUESTED:          0  ISSUED:          0  USEFUL:          0  USELESS:          0
PSCL3 USEFUL LOAD PREFETCHES:          0 PREFETCH ISSUED TO LOWER LEVEL:          0  ACCURACY: -nan
PSCL3 TIMELY PREFETCHES:          0 LATE PREFETCHES: 0 DROPPED PREFETCHES: 0
PSCL3 PREFETCHES SAME FILL-ORIGIN LEVEL: 0 DIFFERENT FILL-ORIGIN LEVEL: 0

PSCL2 TOTAL     ACCESS:      18404  HIT:      18384  MISS:         20  HIT %:    99.8913  MISS %:   0.108672   MPKI: 0.0008
PSCL2 LOAD TRANSLATION ACCESS:      18404  HIT:      18384  MISS:         20  HIT %:    99.8913  MISS %:   0.108672   MPKI: 0.0008
PSCL2 PREFETCH  REQUESTED:          0  ISSUED:          0  USEFUL:          0  USELESS:          0
PSCL2 USEFUL LOAD PREFETCHES:          0 PREFETCH ISSUED TO LOWER LEVEL:          0  ACCURACY: -nan
PSCL2 TIMELY PREFETCHES:          0 LATE PREFETCHES: 0 DROPPED PREFETCHES: 0
PSCL2 PREFETCHES SAME FILL-ORIGIN LEVEL: 0 DIFFERENT FILL-ORIGIN LEVEL: 0

LLC TOTAL     ACCESS:    2393769  HIT:    1213825  MISS:    1179944  HIT %:    50.7077  MISS %:    49.2923   MPKI: 47.1978
LLC LOAD      ACCESS:     215150  HIT:       8555  MISS:     206595  HIT %:     3.9763  MISS %:    96.0237   MPKI: 8.2638
LLC RFO       ACCESS:     892450  HIT:       9326  MISS:     883124  HIT %:    1.04499  MISS %:     98.955   MPKI: 35.325
LLC PREFETCH  ACCESS:      94517  HIT:       6690  MISS:      87827  HIT %:    7.07809  MISS %:    92.9219   MPKI: 3.51308
AGUS PREFETCH L1 MISS: 0
LLC WRITEBACK ACCESS:    1189326  HIT:    1189254  MISS:         72  HIT %:    99.9939  MISS %: 0.00605385   MPKI: 0.00288
LLC LOAD TRANSLATION ACCESS:       2326  HIT:          0  MISS:       2326  HIT %:          0  MISS %:        100   MPKI: 0.09304
LLC PREFETCH  REQUESTED:          0  ISSUED:          0  USEFUL:       8555  USELESS:      79480
LLC USEFUL LOAD PREFETCHES:       8555 PREFETCH ISSUED TO LOWER LEVEL:     111905  ACCURACY: 7.64488
LLC TIMELY PREFETCHES:       8555 LATE PREFETCHES: 24078 DROPPED PREFETCHES: 0
LLC PREFETCHES SAME FILL-ORIGIN LEVEL: 39446 DIFFERENT FILL-ORIGIN LEVEL: 0
LLC AVERAGE MISS LATENCY: 264.167 cycles
LLC RQ	ACCESS:    1109946	FORWARD:          0	MERGED:          0	TO_CACHE:    1109941
LLC WQ	ACCESS:    1189327	FORWARD:          5	MERGED:          0	TO_CACHE:    1189327
LLC PQ	ACCESS:     127743	FORWARD:          0	MERGED:       1526	TO_CACHE:     126217

LLC Dense regions hint to LLC: 0

RAW hits: 2078536
Reg RAW dependents: 19373658
Loads Generated: 6507599
Loads sent to L1D: 4429042
Stores Generated: 4590395
Stores sent to L1D: 4590390
Major fault: 0 Minor fault: 21552
Allocated PAGES: 21552
Average branch resolution latency (in cycles): 46.6258
CPU 0 L2C Region based offset prefetcher final stats

DRAM Statistics
 CHANNEL 0
 RQ ROW_BUFFER_HIT:     197659  ROW_BUFFER_MISS:     982215
 DBUS_CONGESTED:          1
 WQ ROW_BUFFER_HIT:         10  ROW_BUFFER_MISS:         62  FULL:          0

 AVG_CONGESTED_CYCLE: 1
 All warmup complete: 2
Channel 0 Bank busy for read cycles: 0
Channel 0 Bank busy for write cycles: 0
Channel 0
Rank 0
0banks busy for read cycles: 1704065
0banks busy for write cycles: 32
1banks busy for read cycles: 1851321
1banks busy for write cycles: 12848
2banks busy for read cycles: 1064831
2banks busy for write cycles: 10883
3banks busy for read cycles: 2141407
3banks busy for write cycles: 1285
4banks busy for read cycles: 4922586
4banks busy for write cycles: 4618
5banks busy for read cycles: 6096696
5banks busy for write cycles: 762
6banks busy for read cycles: 7452373
6banks busy for write cycles: 181
7banks busy for read cycles: 5153814
7banks busy for write cycles: 0
8banks busy for read cycles: 1981155
8banks busy for write cycles: 0

CPU 0 Branch Prediction Accuracy: 97.1089% MPKI: 0.51524 Average ROB Occupancy at Mispredict: 250.266
Branch types
NOT_BRANCH: 24554749 98.219%
BRANCH_DIRECT_JUMP: 71616 0.286464%
BRANCH_INDIRECT: 0 0%
BRANCH_CONDITIONAL: 373925 1.4957%
BRANCH_DIRECT_CALL: 0 0%
BRANCH_INDIRECT_CALL: 0 0%
BRANCH_RETURN: 0 0%
BRANCH_OTHER: 0 0%

DRAM PAGES: 1048576
Allocated PAGES: 21552
