
*** ChampSim Multicore Out-of-Order Simulator ***

Warmup Instructions: 25000000
Simulation Instructions: 25000000
Number of CPUs: 1
LLC sets: 2048
LLC ways: 16
Off-chip DRAM Size: 4096 MB Channels: 1 Width: 64-bit Data Rate: 6400 MT/s
CPU 0 runs ../../traces/trace1.champsimtrace.xz
.xz
BTB has LRU replacement policy
ITLB has LRU replacement policy
DTLB has LRU replacement policy
STLB has LRU replacement policy
L1I has LRU replacement policy
L1D has LRU replacement policy
CPU 0 L2C IP-based stride prefetcher
L2C has LRU replacement policy
LLC has LRU replacement policy
Heartbeat CPU 0 instructions: 10000000 cycles: 2547360 heartbeat IPC: 3.92563 cumulative IPC: 3.92563 (Simulation time: 0 hr 0 min 11 sec) 
Heartbeat CPU 0 instructions: 20000005 cycles: 5089972 heartbeat IPC: 3.93297 cumulative IPC: 3.9293 (Simulation time: 0 hr 0 min 22 sec) 

Warmup complete CPU 0 instructions: 25000007 cycles: 6357656 (Simulation time: 0 hr 0 min 28 sec) 

Heartbeat CPU 0 instructions: 30000007 cycles: 15768695 heartbeat IPC: 0.936442 cumulative IPC: 0.531291 (Simulation time: 0 hr 0 min 54 sec) 
Heartbeat CPU 0 instructions: 40000002 cycles: 34206078 heartbeat IPC: 0.542376 cumulative IPC: 0.53863 (Simulation time: 0 hr 1 min 45 sec) 
Heartbeat CPU 0 instructions: 50000000 cycles: 52104960 heartbeat IPC: 0.558694 cumulative IPC: 0.54648 (Simulation time: 0 hr 2 min 34 sec) 
Finished CPU 0 instructions: 25000000 cycles: 45747305 cumulative IPC: 0.54648 (Simulation time: 0 hr 2 min 34 sec) 

ChampSim completed all CPUs

Region of Interest Statistics

CPU 0 cumulative IPC: 0.54648 instructions: 25000000 cycles: 45747305
ITLB TOTAL     ACCESS:    3462718  HIT:    3462718  MISS:          0  HIT %:        100  MISS %:          0   MPKI: 0
ITLB LOAD TRANSLATION ACCESS:    3462718  HIT:    3462718  MISS:          0  HIT %:        100  MISS %:          0   MPKI: 0
ITLB PREFETCH  REQUESTED:          0  ISSUED:          0  USEFUL:          0  USELESS:          0
ITLB USEFUL LOAD PREFETCHES:          0 PREFETCH ISSUED TO LOWER LEVEL:          0  ACCURACY: -nan
ITLB TIMELY PREFETCHES:          0 LATE PREFETCHES: 0 DROPPED PREFETCHES: 0
ITLB PREFETCHES SAME FILL-ORIGIN LEVEL: 0 DIFFERENT FILL-ORIGIN LEVEL: 0
ITLB AVERAGE MISS LATENCY: -nan cycles
ITLB RQ	ACCESS:    4436379	FORWARD:          0	MERGED:     973662	TO_CACHE:    3462717

DTLB TOTAL     ACCESS:    3182136  HIT:    3153311  MISS:      28825  HIT %:    99.0942  MISS %:   0.905838   MPKI: 1.153
DTLB LOAD TRANSLATION ACCESS:    3182136  HIT:    3153311  MISS:      28825  HIT %:    99.0942  MISS %:   0.905838   MPKI: 1.153
DTLB PREFETCH  REQUESTED:          0  ISSUED:          0  USEFUL:          0  USELESS:          0
DTLB USEFUL LOAD PREFETCHES:          0 PREFETCH ISSUED TO LOWER LEVEL:          0  ACCURACY: -nan
DTLB TIMELY PREFETCHES:          0 LATE PREFETCHES: 0 DROPPED PREFETCHES: 0
DTLB PREFETCHES SAME FILL-ORIGIN LEVEL: 0 DIFFERENT FILL-ORIGIN LEVEL: 0
DTLB AVERAGE MISS LATENCY: 111.653 cycles
DTLB RQ	ACCESS:    5301794	FORWARD:          0	MERGED:    2107560	TO_CACHE:    3194234

STLB TOTAL     ACCESS:      28825  HIT:      13183  MISS:      15642  HIT %:    45.7346  MISS %:    54.2654   MPKI: 0.62568
STLB LOAD TRANSLATION ACCESS:      28825  HIT:      13183  MISS:      15642  HIT %:    45.7346  MISS %:    54.2654   MPKI: 0.62568
STLB PREFETCH  REQUESTED:          0  ISSUED:          0  USEFUL:          0  USELESS:          0
STLB USEFUL LOAD PREFETCHES:          0 PREFETCH ISSUED TO LOWER LEVEL:          0  ACCURACY: -nan
STLB TIMELY PREFETCHES:          0 LATE PREFETCHES: 0 DROPPED PREFETCHES: 0
STLB PREFETCHES SAME FILL-ORIGIN LEVEL: 0 DIFFERENT FILL-ORIGIN LEVEL: 0
STLB AVERAGE MISS LATENCY: 187.289 cycles
STLB RQ	ACCESS:      28825	FORWARD:          0	MERGED:          0	TO_CACHE:      28825

STLB Hit, L1D data hit: 0
STLB Hit, L2C data hit: 0
STLB Hit, LLC data hit: 0
STLB Hit, LLC data miss: 0
STLB STLB hints to L2: 0
L1D TOTAL     ACCESS:    5184876  HIT:    3533622  MISS:    1651254  HIT %:    68.1525  MISS %:    31.8475   MPKI: 66.0502
L1D LOAD      ACCESS:    1047418  HIT:     797213  MISS:     250205  HIT %:    76.1122  MISS %:    23.8878   MPKI: 10.0082
L1D RFO       ACCESS:    4137458  HIT:    2736409  MISS:    1401049  HIT %:    66.1374  MISS %:    33.8626   MPKI: 56.042
L1D PREFETCH  REQUESTED:          0  ISSUED:          0  USEFUL:          0  USELESS:          0
L1D USEFUL LOAD PREFETCHES:          0 PREFETCH ISSUED TO LOWER LEVEL:          0  ACCURACY: -nan
L1D TIMELY PREFETCHES:          0 LATE PREFETCHES: 0 DROPPED PREFETCHES: 0
L1D PREFETCHES SAME FILL-ORIGIN LEVEL: 0 DIFFERENT FILL-ORIGIN LEVEL: 0
L1D AVERAGE MISS LATENCY: 316.379 cycles
L1D RQ	ACCESS:    3796382	FORWARD:          0	MERGED:    2477906	TO_CACHE:    1143733
L1D WQ	ACCESS:    4349460	FORWARD:     174743	MERGED:     191399	TO_CACHE:    4158061

L1D UNIQUE REGIONS ACCESSED: 0
L1D REGIONS CONFLICTS: 0
L1D Cross Page Prefetch Requests: 0
L1D Same Page Prefetch Requests: 0
L1D ROI Sum of L1D PQ occupancy: 0
L1D PREFETCHES PUSHED FROM L2C: 0
L1I TOTAL     ACCESS:    4436379  HIT:    4436379  MISS:          0  HIT %:        100  MISS %:          0   MPKI: 0
L1I LOAD      ACCESS:    4436379  HIT:    4436379  MISS:          0  HIT %:        100  MISS %:          0   MPKI: 0
L1I PREFETCH  REQUESTED:          0  ISSUED:          0  USEFUL:          0  USELESS:          0
L1I USEFUL LOAD PREFETCHES:          0 PREFETCH ISSUED TO LOWER LEVEL:          0  ACCURACY: -nan
L1I TIMELY PREFETCHES:          0 LATE PREFETCHES: 0 DROPPED PREFETCHES: 0
L1I PREFETCHES SAME FILL-ORIGIN LEVEL: 0 DIFFERENT FILL-ORIGIN LEVEL: 0
L1I AVERAGE MISS LATENCY: -nan cycles
L1I RQ	ACCESS:    6445588	FORWARD:          0	MERGED:    2009209	TO_CACHE:    4436379

BTB TOTAL     ACCESS:     396212  HIT:     396206  MISS:          6  HIT %:    99.9985  MISS %: 0.00151434   MPKI: 0.00024
BTB BRANCH_DIRECT_JUMP	ACCESS:      52070  HIT:      52069  MISS:          1
BTB BRANCH_INDIRECT	ACCESS:          0  HIT:          0  MISS:          0
BTB BRANCH_CONDITIONAL	ACCESS:     344142  HIT:     344137  MISS:          5
BTB BRANCH_DIRECT_CALL	ACCESS:          0  HIT:          0  MISS:          0
BTB BRANCH_INDIRECT_CALL	ACCESS:          0  HIT:          0  MISS:          0
BTB BRANCH_RETURN	ACCESS:          0  HIT:          0  MISS:          0
BTB BRANCH_OTHER ACCESS:          0  HIT:          0  MISS:          0

L2C TOTAL     ACCESS:    3241830  HIT:    2233313  MISS:    1008517  HIT %:    68.8905  MISS %:    31.1095   MPKI: 40.3407
L2C LOAD      ACCESS:     250205  HIT:      90473  MISS:     159732  HIT %:    36.1595  MISS %:    63.8405   MPKI: 6.38928
L2C DATA LOAD MPKI: 6.38928
L2C INSTRUCTION LOAD MPKI: 0
L2C RFO       ACCESS:    1401049  HIT:     644741  MISS:     756308  HIT %:    46.0184  MISS %:    53.9816   MPKI: 30.2523
L2C PREFETCH  ACCESS:     173879  HIT:      83409  MISS:      90470  HIT %:    47.9696  MISS %:    52.0304   MPKI: 3.6188
AGUS PREFETCH L1 MISS: 0
L2C DATA PREFETCH MPKI: 3.6188
L2C INSTRUCTION PREFETCH MPKI: 0
L2C WRITEBACK ACCESS:    1401053  HIT:    1401023  MISS:         30  HIT %:    99.9979  MISS %: 0.00214125   MPKI: 0.0012
L2C LOAD TRANSLATION ACCESS:      15644  HIT:      13667  MISS:       1977  HIT %:    87.3626  MISS %:    12.6374   MPKI: 0.07908
L2C PREFETCH  REQUESTED:     217805  ISSUED:     217805  USEFUL:      90466  USELESS:          0
L2C USEFUL LOAD PREFETCHES:      90466 PREFETCH ISSUED TO LOWER LEVEL:     120791  ACCURACY: 74.8947
L2C TIMELY PREFETCHES:      90466 LATE PREFETCHES: 6324 DROPPED PREFETCHES: 0
L2C PREFETCHES SAME FILL-ORIGIN LEVEL: 96794 DIFFERENT FILL-ORIGIN LEVEL: 23997
L2C AVERAGE MISS LATENCY: 533.58 cycles
L2C RQ	ACCESS:    1666907	FORWARD:          0	MERGED:          0	TO_CACHE:    1666907
L2C WQ	ACCESS:    1401053	FORWARD:          0	MERGED:          0	TO_CACHE:    1401053
L2C PQ	ACCESS:     217805	FORWARD:          0	MERGED:       1158	TO_CACHE:     216647

L2C Instructions Evicting Data 0
L2C Translations Evicting Data 1972
L2C Data Evicting Data 1004531
L2C Instructions Evicting Instructions 0
L2C Translations Evicting Instructions 0
L2C Data Evicting Instructions 0
L2C Instructions Evicting Translations 0
L2C Translations Evicting Translations 5
L2C Data Evicting Translations 1979
L2C Dense regions hint from L2: 0
PSCL5 TOTAL     ACCESS:      15642  HIT:      15642  MISS:          0  HIT %:        100  MISS %:          0   MPKI: 0
PSCL5 LOAD TRANSLATION ACCESS:      15642  HIT:      15642  MISS:          0  HIT %:        100  MISS %:          0   MPKI: 0
PSCL5 PREFETCH  REQUESTED:          0  ISSUED:          0  USEFUL:          0  USELESS:          0
PSCL5 USEFUL LOAD PREFETCHES:          0 PREFETCH ISSUED TO LOWER LEVEL:          0  ACCURACY: -nan
PSCL5 TIMELY PREFETCHES:          0 LATE PREFETCHES: 0 DROPPED PREFETCHES: 0
PSCL5 PREFETCHES SAME FILL-ORIGIN LEVEL: 0 DIFFERENT FILL-ORIGIN LEVEL: 0

PSCL4 TOTAL     ACCESS:      15642  HIT:      15642  MISS:          0  HIT %:        100  MISS %:          0   MPKI: 0
PSCL4 LOAD TRANSLATION ACCESS:      15642  HIT:      15642  MISS:          0  HIT %:        100  MISS %:          0   MPKI: 0
PSCL4 PREFETCH  REQUESTED:          0  ISSUED:          0  USEFUL:          0  USELESS:          0
PSCL4 USEFUL LOAD PREFETCHES:          0 PREFETCH ISSUED TO LOWER LEVEL:          0  ACCURACY: -nan
PSCL4 TIMELY PREFETCHES:          0 LATE PREFETCHES: 0 DROPPED PREFETCHES: 0
PSCL4 PREFETCHES SAME FILL-ORIGIN LEVEL: 0 DIFFERENT FILL-ORIGIN LEVEL: 0

PSCL3 TOTAL     ACCESS:      15642  HIT:      15642  MISS:          0  HIT %:        100  MISS %:          0   MPKI: 0
PSCL3 LOAD TRANSLATION ACCESS:      15642  HIT:      15642  MISS:          0  HIT %:        100  MISS %:          0   MPKI: 0
PSCL3 PREFETCH  REQUESTED:          0  ISSUED:          0  USEFUL:          0  USELESS:          0
PSCL3 USEFUL LOAD PREFETCHES:          0 PREFETCH ISSUED TO LOWER LEVEL:          0  ACCURACY: -nan
PSCL3 TIMELY PREFETCHES:          0 LATE PREFETCHES: 0 DROPPED PREFETCHES: 0
PSCL3 PREFETCHES SAME FILL-ORIGIN LEVEL: 0 DIFFERENT FILL-ORIGIN LEVEL: 0

PSCL2 TOTAL     ACCESS:      15642  HIT:      15625  MISS:         17  HIT %:    99.8913  MISS %:   0.108682   MPKI: 0.00068
PSCL2 LOAD TRANSLATION ACCESS:      15642  HIT:      15625  MISS:         17  HIT %:    99.8913  MISS %:   0.108682   MPKI: 0.00068
PSCL2 PREFETCH  REQUESTED:          0  ISSUED:          0  USEFUL:          0  USELESS:          0
PSCL2 USEFUL LOAD PREFETCHES:          0 PREFETCH ISSUED TO LOWER LEVEL:          0  ACCURACY: -nan
PSCL2 TIMELY PREFETCHES:          0 LATE PREFETCHES: 0 DROPPED PREFETCHES: 0
PSCL2 PREFETCHES SAME FILL-ORIGIN LEVEL: 0 DIFFERENT FILL-ORIGIN LEVEL: 0

LLC TOTAL     ACCESS:    1782518  HIT:     779778  MISS:    1002740  HIT %:    43.7459  MISS %:    56.2541   MPKI: 40.1096
LLC LOAD      ACCESS:     153408  HIT:       6162  MISS:     147246  HIT %:    4.01674  MISS %:    95.9833   MPKI: 5.88984
LLC RFO       ACCESS:     756301  HIT:       5770  MISS:     750531  HIT %:   0.762924  MISS %:    99.2371   MPKI: 30.0212
LLC PREFETCH  ACCESS:     113739  HIT:      10783  MISS:     102956  HIT %:    9.48048  MISS %:    90.5195   MPKI: 4.11824
AGUS PREFETCH L1 MISS: 0
LLC WRITEBACK ACCESS:     757093  HIT:     757063  MISS:         30  HIT %:     99.996  MISS %: 0.00396253   MPKI: 0.0012
LLC LOAD TRANSLATION ACCESS:       1977  HIT:          0  MISS:       1977  HIT %:          0  MISS %:        100   MPKI: 0.07908
LLC PREFETCH  REQUESTED:          0  ISSUED:          0  USEFUL:       6162  USELESS:      96392
LLC USEFUL LOAD PREFETCHES:       6162 PREFETCH ISSUED TO LOWER LEVEL:     105567  ACCURACY: 5.83705
LLC TIMELY PREFETCHES:       6162 LATE PREFETCHES: 2611 DROPPED PREFETCHES: 0
LLC PREFETCHES SAME FILL-ORIGIN LEVEL: 19383 DIFFERENT FILL-ORIGIN LEVEL: 0
LLC AVERAGE MISS LATENCY: 516.603 cycles
LLC RQ	ACCESS:     911702	FORWARD:          0	MERGED:          0	TO_CACHE:     911695
LLC WQ	ACCESS:     757094	FORWARD:          7	MERGED:          0	TO_CACHE:     757094
LLC PQ	ACCESS:     120791	FORWARD:          0	MERGED:          4	TO_CACHE:     120787

LLC Dense regions hint to LLC: 0

RAW hits: 2525259
Reg RAW dependents: 19604712
Loads Generated: 6321656
Loads sent to L1D: 3796382
Stores Generated: 4349455
Stores sent to L1D: 4349460
Major fault: 0 Minor fault: 19681
Allocated PAGES: 19681
Average branch resolution latency (in cycles): 69.8718
CPU 0 L2C PC-based stride prefetcher final stats

DRAM Statistics
 CHANNEL 0
 RQ ROW_BUFFER_HIT:      85115  ROW_BUFFER_MISS:     917595
 DBUS_CONGESTED:          0
 WQ ROW_BUFFER_HIT:     165125  ROW_BUFFER_MISS:     586187  FULL:          0

 AVG_CONGESTED_CYCLE: -
 All warmup complete: 2
Channel 0 Bank busy for read cycles: 0
Channel 0 Bank busy for write cycles: 0
Channel 0
Rank 0
0banks busy for read cycles: 21515
0banks busy for write cycles: 0
1banks busy for read cycles: 1973474
1banks busy for write cycles: 78409
2banks busy for read cycles: 1304545
2banks busy for write cycles: 78409
3banks busy for read cycles: 2507910
3banks busy for write cycles: 78409
4banks busy for read cycles: 3463773
4banks busy for write cycles: 78409
5banks busy for read cycles: 4433283
5banks busy for write cycles: 78412
6banks busy for read cycles: 6056990
6banks busy for write cycles: 79048
7banks busy for read cycles: 4786267
7banks busy for write cycles: 838969
8banks busy for read cycles: 5093992
8banks busy for write cycles: 14795492

CPU 0 Branch Prediction Accuracy: 97.8416% MPKI: 0.34208 Average ROB Occupancy at Mispredict: 236.72
Branch types
NOT_BRANCH: 24604021 98.4161%
BRANCH_DIRECT_JUMP: 52070 0.20828%
BRANCH_INDIRECT: 0 0%
BRANCH_CONDITIONAL: 344150 1.3766%
BRANCH_DIRECT_CALL: 0 0%
BRANCH_INDIRECT_CALL: 0 0%
BRANCH_RETURN: 0 0%
BRANCH_OTHER: 0 0%

DRAM PAGES: 1048576
Allocated PAGES: 19681
