
*** ChampSim Multicore Out-of-Order Simulator ***

Warmup Instructions: 25000000
Simulation Instructions: 25000000
Number of CPUs: 1
LLC sets: 2048
LLC ways: 16
Off-chip DRAM Size: 4096 MB Channels: 1 Width: 64-bit Data Rate: 6400 MT/s
CPU 0 runs ../../traces/trace3.champsimtrace.xz
.xz
BTB has LRU replacement policy
ITLB has LRU replacement policy
DTLB has LRU replacement policy
STLB has LRU replacement policy
L1I has LRU replacement policy
L1D has LRU replacement policy
L2C has LRU replacement policy
LLC has LRU replacement policy
Heartbeat CPU 0 instructions: 10000003 cycles: 2500074 heartbeat IPC: 3.99988 cumulative IPC: 3.99988 (Simulation time: 0 hr 0 min 13 sec) 
Heartbeat CPU 0 instructions: 20000007 cycles: 5004038 heartbeat IPC: 3.99367 cumulative IPC: 3.99677 (Simulation time: 0 hr 0 min 21 sec) 

Warmup complete CPU 0 instructions: 25000008 cycles: 6254037 (Simulation time: 0 hr 0 min 25 sec) 

Heartbeat CPU 0 instructions: 30000005 cycles: 10824064 heartbeat IPC: 1.71821 cumulative IPC: 1.09408 (Simulation time: 0 hr 0 min 39 sec) 
Heartbeat CPU 0 instructions: 40000003 cycles: 20058642 heartbeat IPC: 1.08289 cumulative IPC: 1.08659 (Simulation time: 0 hr 1 min 6 sec) 
Heartbeat CPU 0 instructions: 50000001 cycles: 29292366 heartbeat IPC: 1.08299 cumulative IPC: 1.08515 (Simulation time: 0 hr 1 min 34 sec) 
Finished CPU 0 instructions: 25000001 cycles: 23038330 cumulative IPC: 1.08515 (Simulation time: 0 hr 1 min 34 sec) 

ChampSim completed all CPUs

Region of Interest Statistics

CPU 0 cumulative IPC: 1.08515 instructions: 25000001 cycles: 23038330
ITLB TOTAL     ACCESS:    3295665  HIT:    3295665  MISS:          0  HIT %:        100  MISS %:          0   MPKI: 0
ITLB LOAD TRANSLATION ACCESS:    3295665  HIT:    3295665  MISS:          0  HIT %:        100  MISS %:          0   MPKI: 0
ITLB PREFETCH  REQUESTED:          0  ISSUED:          0  USEFUL:          0  USELESS:          0
ITLB USEFUL LOAD PREFETCHES:          0 PREFETCH ISSUED TO LOWER LEVEL:          0  ACCURACY: -nan
ITLB TIMELY PREFETCHES:          0 LATE PREFETCHES: 0 DROPPED PREFETCHES: 0
ITLB PREFETCHES SAME FILL-ORIGIN LEVEL: 0 DIFFERENT FILL-ORIGIN LEVEL: 0
ITLB AVERAGE MISS LATENCY: -nan cycles
ITLB RQ	ACCESS:    4301433	FORWARD:          0	MERGED:    1005769	TO_CACHE:    3295664

DTLB TOTAL     ACCESS:    2655152  HIT:    2639550  MISS:      15602  HIT %:    99.4124  MISS %:   0.587612   MPKI: 0.62408
DTLB LOAD TRANSLATION ACCESS:    2655152  HIT:    2639550  MISS:      15602  HIT %:    99.4124  MISS %:   0.587612   MPKI: 0.62408
DTLB PREFETCH  REQUESTED:          0  ISSUED:          0  USEFUL:          0  USELESS:          0
DTLB USEFUL LOAD PREFETCHES:          0 PREFETCH ISSUED TO LOWER LEVEL:          0  ACCURACY: -nan
DTLB TIMELY PREFETCHES:          0 LATE PREFETCHES: 0 DROPPED PREFETCHES: 0
DTLB PREFETCHES SAME FILL-ORIGIN LEVEL: 0 DIFFERENT FILL-ORIGIN LEVEL: 0
DTLB AVERAGE MISS LATENCY: 81.5267 cycles
DTLB RQ	ACCESS:    4800779	FORWARD:          0	MERGED:    2143458	TO_CACHE:    2657321

STLB TOTAL     ACCESS:      15602  HIT:       7134  MISS:       8468  HIT %:    45.7249  MISS %:    54.2751   MPKI: 0.33872
STLB LOAD TRANSLATION ACCESS:      15602  HIT:       7134  MISS:       8468  HIT %:    45.7249  MISS %:    54.2751   MPKI: 0.33872
STLB PREFETCH  REQUESTED:          0  ISSUED:          0  USEFUL:          0  USELESS:          0
STLB USEFUL LOAD PREFETCHES:          0 PREFETCH ISSUED TO LOWER LEVEL:          0  ACCURACY: -nan
STLB TIMELY PREFETCHES:          0 LATE PREFETCHES: 0 DROPPED PREFETCHES: 0
STLB PREFETCHES SAME FILL-ORIGIN LEVEL: 0 DIFFERENT FILL-ORIGIN LEVEL: 0
STLB AVERAGE MISS LATENCY: 133.578 cycles
STLB RQ	ACCESS:      15602	FORWARD:          0	MERGED:          0	TO_CACHE:      15602

STLB Hit, L1D data hit: 0
STLB Hit, L2C data hit: 0
STLB Hit, LLC data hit: 0
STLB Hit, LLC data miss: 0
STLB STLB hints to L2: 0
L1D TOTAL     ACCESS:    4721982  HIT:    3828116  MISS:     893866  HIT %:    81.0701  MISS %:    18.9299   MPKI: 35.7546
L1D LOAD      ACCESS:    1103260  HIT:     967821  MISS:     135439  HIT %:    87.7237  MISS %:    12.2763   MPKI: 5.41756
L1D RFO       ACCESS:    3618722  HIT:    2860295  MISS:     758427  HIT %:    79.0416  MISS %:    20.9584   MPKI: 30.3371
L1D PREFETCH  REQUESTED:          0  ISSUED:          0  USEFUL:          0  USELESS:          0
L1D USEFUL LOAD PREFETCHES:          0 PREFETCH ISSUED TO LOWER LEVEL:          0  ACCURACY: -nan
L1D TIMELY PREFETCHES:          0 LATE PREFETCHES: 0 DROPPED PREFETCHES: 0
L1D PREFETCHES SAME FILL-ORIGIN LEVEL: 0 DIFFERENT FILL-ORIGIN LEVEL: 0
L1D AVERAGE MISS LATENCY: 180.179 cycles
L1D RQ	ACCESS:    3179438	FORWARD:          0	MERGED:    1764164	TO_CACHE:    1181448
L1D WQ	ACCESS:    3724072	FORWARD:     233826	MERGED:     104741	TO_CACHE:    3619331

L1D UNIQUE REGIONS ACCESSED: 0
L1D REGIONS CONFLICTS: 0
L1D Cross Page Prefetch Requests: 0
L1D Same Page Prefetch Requests: 0
L1D ROI Sum of L1D PQ occupancy: 0
L1D PREFETCHES PUSHED FROM L2C: 0
L1I TOTAL     ACCESS:    4301432  HIT:    4301432  MISS:          0  HIT %:        100  MISS %:          0   MPKI: 0
L1I LOAD      ACCESS:    4301432  HIT:    4301432  MISS:          0  HIT %:        100  MISS %:          0   MPKI: 0
L1I PREFETCH  REQUESTED:          0  ISSUED:          0  USEFUL:          0  USELESS:          0
L1I USEFUL LOAD PREFETCHES:          0 PREFETCH ISSUED TO LOWER LEVEL:          0  ACCURACY: -nan
L1I TIMELY PREFETCHES:          0 LATE PREFETCHES: 0 DROPPED PREFETCHES: 0
L1I PREFETCHES SAME FILL-ORIGIN LEVEL: 0 DIFFERENT FILL-ORIGIN LEVEL: 0
L1I AVERAGE MISS LATENCY: -nan cycles
L1I RQ	ACCESS:    6102440	FORWARD:          0	MERGED:    1801007	TO_CACHE:    4301433

BTB TOTAL     ACCESS:     268031  HIT:     268025  MISS:          6  HIT %:    99.9978  MISS %: 0.00223855   MPKI: 0.00024
BTB BRANCH_DIRECT_JUMP	ACCESS:       1334  HIT:       1333  MISS:          1
BTB BRANCH_INDIRECT	ACCESS:          0  HIT:          0  MISS:          0
BTB BRANCH_CONDITIONAL	ACCESS:     266697  HIT:     266692  MISS:          5
BTB BRANCH_DIRECT_CALL	ACCESS:          0  HIT:          0  MISS:          0
BTB BRANCH_INDIRECT_CALL	ACCESS:          0  HIT:          0  MISS:          0
BTB BRANCH_RETURN	ACCESS:          0  HIT:          0  MISS:          0
BTB BRANCH_OTHER ACCESS:          0  HIT:          0  MISS:          0

L2C TOTAL     ACCESS:    1796200  HIT:     349725  MISS:    1446475  HIT %:    19.4703  MISS %:    80.5297   MPKI: 57.859
L2C LOAD      ACCESS:     135439  HIT:          3  MISS:     135436  HIT %: 0.00221502  MISS %:    99.9978   MPKI: 5.41744
L2C DATA LOAD MPKI: 5.41744
L2C INSTRUCTION LOAD MPKI: 0
L2C RFO       ACCESS:     758427  HIT:     342323  MISS:     416104  HIT %:    45.1359  MISS %:    54.8641   MPKI: 16.6442
L2C WRITEBACK ACCESS:     893865  HIT:          0  MISS:     893865  HIT %:          0  MISS %:        100   MPKI: 35.7546
L2C LOAD TRANSLATION ACCESS:       8469  HIT:       7399  MISS:       1070  HIT %:    87.3657  MISS %:    12.6343   MPKI: 0.0428
L2C PREFETCH  REQUESTED:          0  ISSUED:          0  USEFUL:          0  USELESS:          0
L2C USEFUL LOAD PREFETCHES:          0 PREFETCH ISSUED TO LOWER LEVEL:          0  ACCURACY: -nan
L2C TIMELY PREFETCHES:          0 LATE PREFETCHES: 0 DROPPED PREFETCHES: 0
L2C PREFETCHES SAME FILL-ORIGIN LEVEL: 0 DIFFERENT FILL-ORIGIN LEVEL: 0
L2C AVERAGE MISS LATENCY: 100.519 cycles
L2C RQ	ACCESS:     902337	FORWARD:          0	MERGED:          0	TO_CACHE:     902337
L2C WQ	ACCESS:     893866	FORWARD:          0	MERGED:          0	TO_CACHE:     893866

L2C Instructions Evicting Data 0
L2C Translations Evicting Data 640
L2C Data Evicting Data 269859
L2C Instructions Evicting Instructions 0
L2C Translations Evicting Instructions 0
L2C Data Evicting Instructions 0
L2C Instructions Evicting Translations 0
L2C Translations Evicting Translations 6
L2C Data Evicting Translations 514
L2C Dense regions hint from L2: 0
PSCL5 TOTAL     ACCESS:       8468  HIT:       8468  MISS:          0  HIT %:        100  MISS %:          0   MPKI: 0
PSCL5 LOAD TRANSLATION ACCESS:       8468  HIT:       8468  MISS:          0  HIT %:        100  MISS %:          0   MPKI: 0
PSCL5 PREFETCH  REQUESTED:          0  ISSUED:          0  USEFUL:          0  USELESS:          0
PSCL5 USEFUL LOAD PREFETCHES:          0 PREFETCH ISSUED TO LOWER LEVEL:          0  ACCURACY: -nan
PSCL5 TIMELY PREFETCHES:          0 LATE PREFETCHES: 0 DROPPED PREFETCHES: 0
PSCL5 PREFETCHES SAME FILL-ORIGIN LEVEL: 0 DIFFERENT FILL-ORIGIN LEVEL: 0

PSCL4 TOTAL     ACCESS:       8468  HIT:       8468  MISS:          0  HIT %:        100  MISS %:          0   MPKI: 0
PSCL4 LOAD TRANSLATION ACCESS:       8468  HIT:       8468  MISS:          0  HIT %:        100  MISS %:          0   MPKI: 0
PSCL4 PREFETCH  REQUESTED:          0  ISSUED:          0  USEFUL:          0  USELESS:          0
PSCL4 USEFUL LOAD PREFETCHES:          0 PREFETCH ISSUED TO LOWER LEVEL:          0  ACCURACY: -nan
PSCL4 TIMELY PREFETCHES:          0 LATE PREFETCHES: 0 DROPPED PREFETCHES: 0
PSCL4 PREFETCHES SAME FILL-ORIGIN LEVEL: 0 DIFFERENT FILL-ORIGIN LEVEL: 0

PSCL3 TOTAL     ACCESS:       8468  HIT:       8468  MISS:          0  HIT %:        100  MISS %:          0   MPKI: 0
PSCL3 LOAD TRANSLATION ACCESS:       8468  HIT:       8468  MISS:          0  HIT %:        100  MISS %:          0   MPKI: 0
PSCL3 PREFETCH  REQUESTED:          0  ISSUED:          0  USEFUL:          0  USELESS:          0
PSCL3 USEFUL LOAD PREFETCHES:          0 PREFETCH ISSUED TO LOWER LEVEL:          0  ACCURACY: -nan
PSCL3 TIMELY PREFETCHES:          0 LATE PREFETCHES: 0 DROPPED PREFETCHES: 0
PSCL3 PREFETCHES SAME FILL-ORIGIN LEVEL: 0 DIFFERENT FILL-ORIGIN LEVEL: 0

PSCL2 TOTAL     ACCESS:       8468  HIT:       8459  MISS:          9  HIT %:    99.8937  MISS %:   0.106282   MPKI: 0.00036
PSCL2 LOAD TRANSLATION ACCESS:       8468  HIT:       8459  MISS:          9  HIT %:    99.8937  MISS %:   0.106282   MPKI: 0.00036
PSCL2 PREFETCH  REQUESTED:          0  ISSUED:          0  USEFUL:          0  USELESS:          0
PSCL2 USEFUL LOAD PREFETCHES:          0 PREFETCH ISSUED TO LOWER LEVEL:          0  ACCURACY: -nan
PSCL2 TIMELY PREFETCHES:          0 LATE PREFETCHES: 0 DROPPED PREFETCHES: 0
PSCL2 PREFETCHES SAME FILL-ORIGIN LEVEL: 0 DIFFERENT FILL-ORIGIN LEVEL: 0

LLC TOTAL     ACCESS:    1105284  HIT:       9815  MISS:    1095469  HIT %:   0.888007  MISS %:     99.112   MPKI: 43.8188
LLC LOAD      ACCESS:     135436  HIT:          3  MISS:     135433  HIT %: 0.00221507  MISS %:    99.9978   MPKI: 5.41732
LLC RFO       ACCESS:     416104  HIT:       9812  MISS:     406292  HIT %:    2.35806  MISS %:    97.6419   MPKI: 16.2517
LLC WRITEBACK ACCESS:     552674  HIT:          0  MISS:     552674  HIT %:          0  MISS %:        100   MPKI: 22.107
LLC LOAD TRANSLATION ACCESS:       1070  HIT:          0  MISS:       1070  HIT %:          0  MISS %:        100   MPKI: 0.0428
LLC PREFETCH  REQUESTED:          0  ISSUED:          0  USEFUL:          0  USELESS:          0
LLC USEFUL LOAD PREFETCHES:          0 PREFETCH ISSUED TO LOWER LEVEL:          0  ACCURACY: -nan
LLC TIMELY PREFETCHES:          0 LATE PREFETCHES: 0 DROPPED PREFETCHES: 0
LLC PREFETCHES SAME FILL-ORIGIN LEVEL: 0 DIFFERENT FILL-ORIGIN LEVEL: 0
LLC AVERAGE MISS LATENCY: 117.181 cycles
LLC RQ	ACCESS:     552612	FORWARD:          0	MERGED:          0	TO_CACHE:     552612
LLC WQ	ACCESS:     552675	FORWARD:          0	MERGED:          0	TO_CACHE:     552675

LLC Dense regions hint to LLC: 0

RAW hits: 2659555
Reg RAW dependents: 20397582
Loads Generated: 5838998
Loads sent to L1D: 3179438
Stores Generated: 3724077
Stores sent to L1D: 3724072
Major fault: 0 Minor fault: 11618
Allocated PAGES: 11618
Average branch resolution latency (in cycles): 20.9747

DRAM Statistics
 CHANNEL 0
 RQ ROW_BUFFER_HIT:      48541  ROW_BUFFER_MISS:     494256
 DBUS_CONGESTED:          0
 WQ ROW_BUFFER_HIT:          0  ROW_BUFFER_MISS:          0  FULL:          0

 AVG_CONGESTED_CYCLE: -
 All warmup complete: 2
Channel 0 Bank busy for read cycles: 0
Channel 0 Bank busy for write cycles: 0
Channel 0
Rank 0
0banks busy for read cycles: 3041895
0banks busy for write cycles: 0
1banks busy for read cycles: 3186994
1banks busy for write cycles: 0
2banks busy for read cycles: 665888
2banks busy for write cycles: 0
3banks busy for read cycles: 2434907
3banks busy for write cycles: 0
4banks busy for read cycles: 6020951
4banks busy for write cycles: 0
5banks busy for read cycles: 5682739
5banks busy for write cycles: 0
6banks busy for read cycles: 1852168
6banks busy for write cycles: 0
7banks busy for read cycles: 90752
7banks busy for write cycles: 0
8banks busy for read cycles: 62037
8banks busy for write cycles: 0

CPU 0 Branch Prediction Accuracy: 99.8986% MPKI: 0.01088 Average ROB Occupancy at Mispredict: 232.224
Branch types
NOT_BRANCH: 24731942 98.9278%
BRANCH_DIRECT_JUMP: 1334 0.005336%
BRANCH_INDIRECT: 0 0%
BRANCH_CONDITIONAL: 266865 1.06746%
BRANCH_DIRECT_CALL: 0 0%
BRANCH_INDIRECT_CALL: 0 0%
BRANCH_RETURN: 0 0%
BRANCH_OTHER: 0 0%

DRAM PAGES: 1048576
Allocated PAGES: 11618
