
*** ChampSim Multicore Out-of-Order Simulator ***

Warmup Instructions: 25000000
Simulation Instructions: 25000000
Number of CPUs: 1
LLC sets: 2048
LLC ways: 16
Off-chip DRAM Size: 4096 MB Channels: 1 Width: 64-bit Data Rate: 6400 MT/s
CPU 0 runs ../../traces/trace1.champsimtrace.xz
.xz
BTB has LRU replacement policy
ITLB has LRU replacement policy
DTLB has LRU replacement policy
STLB has LRU replacement policy
L1I has LRU replacement policy
L1D has LRU replacement policy
L2C has LRU replacement policy
LLC has LRU replacement policy
Heartbeat CPU 0 instructions: 10000000 cycles: 2548623 heartbeat IPC: 3.92369 cumulative IPC: 3.92369 (Simulation time: 0 hr 0 min 18 sec) 
Heartbeat CPU 0 instructions: 20000001 cycles: 5092298 heartbeat IPC: 3.93132 cumulative IPC: 3.9275 (Simulation time: 0 hr 0 min 30 sec) 

Warmup complete CPU 0 instructions: 25000003 cycles: 6360746 (Simulation time: 0 hr 0 min 36 sec) 

Heartbeat CPU 0 instructions: 30000007 cycles: 17222278 heartbeat IPC: 0.824404 cumulative IPC: 0.460341 (Simulation time: 0 hr 1 min 6 sec) 
Heartbeat CPU 0 instructions: 40000002 cycles: 38526200 heartbeat IPC: 0.469397 cumulative IPC: 0.466339 (Simulation time: 0 hr 2 min 3 sec) 
Heartbeat CPU 0 instructions: 50000000 cycles: 58994841 heartbeat IPC: 0.488552 cumulative IPC: 0.474977 (Simulation time: 0 hr 2 min 58 sec) 
Finished CPU 0 instructions: 25000000 cycles: 52634096 cumulative IPC: 0.474977 (Simulation time: 0 hr 2 min 58 sec) 

ChampSim completed all CPUs

Region of Interest Statistics

CPU 0 cumulative IPC: 0.474977 instructions: 25000000 cycles: 52634096
ITLB TOTAL     ACCESS:    3506771  HIT:    3506771  MISS:          0  HIT %:        100  MISS %:          0   MPKI: 0
ITLB LOAD TRANSLATION ACCESS:    3506771  HIT:    3506771  MISS:          0  HIT %:        100  MISS %:          0   MPKI: 0
ITLB PREFETCH  REQUESTED:          0  ISSUED:          0  USEFUL:          0  USELESS:          0
ITLB USEFUL LOAD PREFETCHES:          0 PREFETCH ISSUED TO LOWER LEVEL:          0  ACCURACY: -nan
ITLB TIMELY PREFETCHES:          0 LATE PREFETCHES: 0 DROPPED PREFETCHES: 0
ITLB PREFETCHES SAME FILL-ORIGIN LEVEL: 0 DIFFERENT FILL-ORIGIN LEVEL: 0
ITLB AVERAGE MISS LATENCY: -nan cycles
ITLB RQ	ACCESS:    4472866	FORWARD:          0	MERGED:     966096	TO_CACHE:    3506770

DTLB TOTAL     ACCESS:    3278017  HIT:    3249191  MISS:      28826  HIT %:    99.1206  MISS %:   0.879373   MPKI: 1.15304
DTLB LOAD TRANSLATION ACCESS:    3278017  HIT:    3249191  MISS:      28826  HIT %:    99.1206  MISS %:   0.879373   MPKI: 1.15304
DTLB PREFETCH  REQUESTED:          0  ISSUED:          0  USEFUL:          0  USELESS:          0
DTLB USEFUL LOAD PREFETCHES:          0 PREFETCH ISSUED TO LOWER LEVEL:          0  ACCURACY: -nan
DTLB TIMELY PREFETCHES:          0 LATE PREFETCHES: 0 DROPPED PREFETCHES: 0
DTLB PREFETCHES SAME FILL-ORIGIN LEVEL: 0 DIFFERENT FILL-ORIGIN LEVEL: 0
DTLB AVERAGE MISS LATENCY: 119.306 cycles
DTLB RQ	ACCESS:    5366467	FORWARD:          0	MERGED:    2077229	TO_CACHE:    3289238

STLB TOTAL     ACCESS:      28826  HIT:      13184  MISS:      15642  HIT %:    45.7365  MISS %:    54.2635   MPKI: 0.62568
STLB LOAD TRANSLATION ACCESS:      28826  HIT:      13184  MISS:      15642  HIT %:    45.7365  MISS %:    54.2635   MPKI: 0.62568
STLB PREFETCH  REQUESTED:          0  ISSUED:          0  USEFUL:          0  USELESS:          0
STLB USEFUL LOAD PREFETCHES:          0 PREFETCH ISSUED TO LOWER LEVEL:          0  ACCURACY: -nan
STLB TIMELY PREFETCHES:          0 LATE PREFETCHES: 0 DROPPED PREFETCHES: 0
STLB PREFETCHES SAME FILL-ORIGIN LEVEL: 0 DIFFERENT FILL-ORIGIN LEVEL: 0
STLB AVERAGE MISS LATENCY: 201.652 cycles
STLB RQ	ACCESS:      28826	FORWARD:          0	MERGED:          0	TO_CACHE:      28826

STLB Hit, L1D data hit: 0
STLB Hit, L2C data hit: 0
STLB Hit, LLC data hit: 0
STLB Hit, LLC data miss: 0
STLB STLB hints to L2: 0
L1D TOTAL     ACCESS:    5257849  HIT:    3606590  MISS:    1651259  HIT %:    68.5944  MISS %:    31.4056   MPKI: 66.0504
L1D LOAD      ACCESS:    1080731  HIT:     830529  MISS:     250202  HIT %:    76.8488  MISS %:    23.1512   MPKI: 10.0081
L1D RFO       ACCESS:    4177118  HIT:    2776061  MISS:    1401057  HIT %:    66.4588  MISS %:    33.5412   MPKI: 56.0423
L1D PREFETCH  REQUESTED:          0  ISSUED:          0  USEFUL:          0  USELESS:          0
L1D USEFUL LOAD PREFETCHES:          0 PREFETCH ISSUED TO LOWER LEVEL:          0  ACCURACY: -nan
L1D TIMELY PREFETCHES:          0 LATE PREFETCHES: 0 DROPPED PREFETCHES: 0
L1D PREFETCHES SAME FILL-ORIGIN LEVEL: 0 DIFFERENT FILL-ORIGIN LEVEL: 0
L1D AVERAGE MISS LATENCY: 381.928 cycles
L1D RQ	ACCESS:    3879153	FORWARD:          0	MERGED:    2472854	TO_CACHE:    1174538
L1D WQ	ACCESS:    4349461	FORWARD:     231761	MERGED:     157532	TO_CACHE:    4191929

L1D UNIQUE REGIONS ACCESSED: 0
L1D REGIONS CONFLICTS: 0
L1D Cross Page Prefetch Requests: 0
L1D Same Page Prefetch Requests: 0
L1D ROI Sum of L1D PQ occupancy: 0
L1D PREFETCHES PUSHED FROM L2C: 0
L1I TOTAL     ACCESS:    4472866  HIT:    4472866  MISS:          0  HIT %:        100  MISS %:          0   MPKI: 0
L1I LOAD      ACCESS:    4472866  HIT:    4472866  MISS:          0  HIT %:        100  MISS %:          0   MPKI: 0
L1I PREFETCH  REQUESTED:          0  ISSUED:          0  USEFUL:          0  USELESS:          0
L1I USEFUL LOAD PREFETCHES:          0 PREFETCH ISSUED TO LOWER LEVEL:          0  ACCURACY: -nan
L1I TIMELY PREFETCHES:          0 LATE PREFETCHES: 0 DROPPED PREFETCHES: 0
L1I PREFETCHES SAME FILL-ORIGIN LEVEL: 0 DIFFERENT FILL-ORIGIN LEVEL: 0
L1I AVERAGE MISS LATENCY: -nan cycles
L1I RQ	ACCESS:    6547167	FORWARD:          0	MERGED:    2074301	TO_CACHE:    4472866

BTB TOTAL     ACCESS:     396212  HIT:     396206  MISS:          6  HIT %:    99.9985  MISS %: 0.00151434   MPKI: 0.00024
BTB BRANCH_DIRECT_JUMP	ACCESS:      52070  HIT:      52069  MISS:          1
BTB BRANCH_INDIRECT	ACCESS:          0  HIT:          0  MISS:          0
BTB BRANCH_CONDITIONAL	ACCESS:     344142  HIT:     344137  MISS:          5
BTB BRANCH_DIRECT_CALL	ACCESS:          0  HIT:          0  MISS:          0
BTB BRANCH_INDIRECT_CALL	ACCESS:          0  HIT:          0  MISS:          0
BTB BRANCH_RETURN	ACCESS:          0  HIT:          0  MISS:          0
BTB BRANCH_OTHER ACCESS:          0  HIT:          0  MISS:          0

L2C TOTAL     ACCESS:    3318162  HIT:     660316  MISS:    2657846  HIT %:    19.9001  MISS %:    80.0999   MPKI: 106.314
L2C LOAD      ACCESS:     250202  HIT:         22  MISS:     250180  HIT %:  0.0087929  MISS %:    99.9912   MPKI: 10.0072
L2C DATA LOAD MPKI: 10.0072
L2C INSTRUCTION LOAD MPKI: 0
L2C RFO       ACCESS:    1401057  HIT:     646627  MISS:     754430  HIT %:    46.1528  MISS %:    53.8472   MPKI: 30.1772
L2C WRITEBACK ACCESS:    1651259  HIT:          0  MISS:    1651259  HIT %:          0  MISS %:        100   MPKI: 66.0504
L2C LOAD TRANSLATION ACCESS:      15644  HIT:      13667  MISS:       1977  HIT %:    87.3626  MISS %:    12.6374   MPKI: 0.07908
L2C PREFETCH  REQUESTED:          0  ISSUED:          0  USEFUL:          0  USELESS:          0
L2C USEFUL LOAD PREFETCHES:          0 PREFETCH ISSUED TO LOWER LEVEL:          0  ACCURACY: -nan
L2C TIMELY PREFETCHES:          0 LATE PREFETCHES: 0 DROPPED PREFETCHES: 0
L2C PREFETCHES SAME FILL-ORIGIN LEVEL: 0 DIFFERENT FILL-ORIGIN LEVEL: 0
L2C AVERAGE MISS LATENCY: 227.706 cycles
L2C RQ	ACCESS:    1666903	FORWARD:          0	MERGED:          0	TO_CACHE:    1666903
L2C WQ	ACCESS:    1651259	FORWARD:          0	MERGED:          0	TO_CACHE:    1651259

L2C Instructions Evicting Data 0
L2C Translations Evicting Data 1191
L2C Data Evicting Data 463161
L2C Instructions Evicting Instructions 0
L2C Translations Evicting Instructions 0
L2C Data Evicting Instructions 0
L2C Instructions Evicting Translations 0
L2C Translations Evicting Translations 4
L2C Data Evicting Translations 882
L2C Dense regions hint from L2: 0
PSCL5 TOTAL     ACCESS:      15642  HIT:      15642  MISS:          0  HIT %:        100  MISS %:          0   MPKI: 0
PSCL5 LOAD TRANSLATION ACCESS:      15642  HIT:      15642  MISS:          0  HIT %:        100  MISS %:          0   MPKI: 0
PSCL5 PREFETCH  REQUESTED:          0  ISSUED:          0  USEFUL:          0  USELESS:          0
PSCL5 USEFUL LOAD PREFETCHES:          0 PREFETCH ISSUED TO LOWER LEVEL:          0  ACCURACY: -nan
PSCL5 TIMELY PREFETCHES:          0 LATE PREFETCHES: 0 DROPPED PREFETCHES: 0
PSCL5 PREFETCHES SAME FILL-ORIGIN LEVEL: 0 DIFFERENT FILL-ORIGIN LEVEL: 0

PSCL4 TOTAL     ACCESS:      15642  HIT:      15642  MISS:          0  HIT %:        100  MISS %:          0   MPKI: 0
PSCL4 LOAD TRANSLATION ACCESS:      15642  HIT:      15642  MISS:          0  HIT %:        100  MISS %:          0   MPKI: 0
PSCL4 PREFETCH  REQUESTED:          0  ISSUED:          0  USEFUL:          0  USELESS:          0
PSCL4 USEFUL LOAD PREFETCHES:          0 PREFETCH ISSUED TO LOWER LEVEL:          0  ACCURACY: -nan
PSCL4 TIMELY PREFETCHES:          0 LATE PREFETCHES: 0 DROPPED PREFETCHES: 0
PSCL4 PREFETCHES SAME FILL-ORIGIN LEVEL: 0 DIFFERENT FILL-ORIGIN LEVEL: 0

PSCL3 TOTAL     ACCESS:      15642  HIT:      15642  MISS:          0  HIT %:        100  MISS %:          0   MPKI: 0
PSCL3 LOAD TRANSLATION ACCESS:      15642  HIT:      15642  MISS:          0  HIT %:        100  MISS %:          0   MPKI: 0
PSCL3 PREFETCH  REQUESTED:          0  ISSUED:          0  USEFUL:          0  USELESS:          0
PSCL3 USEFUL LOAD PREFETCHES:          0 PREFETCH ISSUED TO LOWER LEVEL:          0  ACCURACY: -nan
PSCL3 TIMELY PREFETCHES:          0 LATE PREFETCHES: 0 DROPPED PREFETCHES: 0
PSCL3 PREFETCHES SAME FILL-ORIGIN LEVEL: 0 DIFFERENT FILL-ORIGIN LEVEL: 0

PSCL2 TOTAL     ACCESS:      15642  HIT:      15625  MISS:         17  HIT %:    99.8913  MISS %:   0.108682   MPKI: 0.00068
PSCL2 LOAD TRANSLATION ACCESS:      15642  HIT:      15625  MISS:         17  HIT %:    99.8913  MISS %:   0.108682   MPKI: 0.00068
PSCL2 PREFETCH  REQUESTED:          0  ISSUED:          0  USEFUL:          0  USELESS:          0
PSCL2 USEFUL LOAD PREFETCHES:          0 PREFETCH ISSUED TO LOWER LEVEL:          0  ACCURACY: -nan
PSCL2 TIMELY PREFETCHES:          0 LATE PREFETCHES: 0 DROPPED PREFETCHES: 0
PSCL2 PREFETCHES SAME FILL-ORIGIN LEVEL: 0 DIFFERENT FILL-ORIGIN LEVEL: 0

LLC TOTAL     ACCESS:    2013217  HIT:       3883  MISS:    2009334  HIT %:   0.192875  MISS %:    99.8071   MPKI: 80.3734
LLC LOAD      ACCESS:     250180  HIT:          0  MISS:     250180  HIT %:          0  MISS %:        100   MPKI: 10.0072
LLC RFO       ACCESS:     754423  HIT:       3883  MISS:     750540  HIT %:   0.514698  MISS %:    99.4853   MPKI: 30.0216
LLC WRITEBACK ACCESS:    1006637  HIT:          0  MISS:    1006637  HIT %:          0  MISS %:        100   MPKI: 40.2655
LLC LOAD TRANSLATION ACCESS:       1977  HIT:          0  MISS:       1977  HIT %:          0  MISS %:        100   MPKI: 0.07908
LLC PREFETCH  REQUESTED:          0  ISSUED:          0  USEFUL:          0  USELESS:          0
LLC USEFUL LOAD PREFETCHES:          0 PREFETCH ISSUED TO LOWER LEVEL:          0  ACCURACY: -nan
LLC TIMELY PREFETCHES:          0 LATE PREFETCHES: 0 DROPPED PREFETCHES: 0
LLC PREFETCHES SAME FILL-ORIGIN LEVEL: 0 DIFFERENT FILL-ORIGIN LEVEL: 0
LLC AVERAGE MISS LATENCY: 285.8 cycles
LLC RQ	ACCESS:    1006587	FORWARD:          0	MERGED:          0	TO_CACHE:    1006580
LLC WQ	ACCESS:    1006637	FORWARD:          7	MERGED:          0	TO_CACHE:    1006637

LLC Dense regions hint to LLC: 0

RAW hits: 2442497
Reg RAW dependents: 19792676
Loads Generated: 6321671
Loads sent to L1D: 3879153
Stores Generated: 4349455
Stores sent to L1D: 4349461
Major fault: 0 Minor fault: 19681
Allocated PAGES: 19681
Average branch resolution latency (in cycles): 75.0552

DRAM Statistics
 CHANNEL 0
 RQ ROW_BUFFER_HIT:      63376  ROW_BUFFER_MISS:     939321
 DBUS_CONGESTED:          0
 WQ ROW_BUFFER_HIT:     229172  ROW_BUFFER_MISS:     777385  FULL:      17872

 AVG_CONGESTED_CYCLE: -
 All warmup complete: 2
Channel 0 Bank busy for read cycles: 0
Channel 0 Bank busy for write cycles: 0
Channel 0
Rank 0
0banks busy for read cycles: 17713
0banks busy for write cycles: 0
1banks busy for read cycles: 2012373
1banks busy for write cycles: 95711
2banks busy for read cycles: 616272
2banks busy for write cycles: 95711
3banks busy for read cycles: 643363
3banks busy for write cycles: 95711
4banks busy for read cycles: 6523564
4banks busy for write cycles: 95711
5banks busy for read cycles: 5798191
5banks busy for write cycles: 95732
6banks busy for read cycles: 6223092
6banks busy for write cycles: 99828
7banks busy for read cycles: 4857235
7banks busy for write cycles: 1180653
8banks busy for read cycles: 4181536
8banks busy for write cycles: 20001701

CPU 0 Branch Prediction Accuracy: 97.8416% MPKI: 0.34208 Average ROB Occupancy at Mispredict: 297.395
Branch types
NOT_BRANCH: 24604071 98.4163%
BRANCH_DIRECT_JUMP: 52070 0.20828%
BRANCH_INDIRECT: 0 0%
BRANCH_CONDITIONAL: 344150 1.3766%
BRANCH_DIRECT_CALL: 0 0%
BRANCH_INDIRECT_CALL: 0 0%
BRANCH_RETURN: 0 0%
BRANCH_OTHER: 0 0%

DRAM PAGES: 1048576
Allocated PAGES: 19681
