
*** ChampSim Multicore Out-of-Order Simulator ***

Warmup Instructions: 25000000
Simulation Instructions: 25000000
Number of CPUs: 1
LLC sets: 2048
LLC ways: 16
Off-chip DRAM Size: 4096 MB Channels: 1 Width: 64-bit Data Rate: 6400 MT/s
CPU 0 runs ../../traces/trace2.champsimtrace.xz
.xz
BTB has LRU replacement policy
ITLB has LRU replacement policy
DTLB has LRU replacement policy
STLB has LRU replacement policy
L1I has LRU replacement policy
L1D has LRU replacement policy
L2C has LRU replacement policy
LLC has LRU replacement policy
Heartbeat CPU 0 instructions: 10000000 cycles: 2546611 heartbeat IPC: 3.92679 cumulative IPC: 3.92679 (Simulation time: 0 hr 0 min 18 sec) 
Heartbeat CPU 0 instructions: 20000007 cycles: 5091409 heartbeat IPC: 3.92959 cumulative IPC: 3.92819 (Simulation time: 0 hr 0 min 31 sec) 

Warmup complete CPU 0 instructions: 25000002 cycles: 6362708 (Simulation time: 0 hr 0 min 37 sec) 

Heartbeat CPU 0 instructions: 30000000 cycles: 18461882 heartbeat IPC: 0.747916 cumulative IPC: 0.413251 (Simulation time: 0 hr 1 min 11 sec) 
Heartbeat CPU 0 instructions: 40000006 cycles: 42565477 heartbeat IPC: 0.414876 cumulative IPC: 0.414333 (Simulation time: 0 hr 2 min 17 sec) 
Heartbeat CPU 0 instructions: 50000004 cycles: 67391968 heartbeat IPC: 0.402795 cumulative IPC: 0.40964 (Simulation time: 0 hr 3 min 25 sec) 
Finished CPU 0 instructions: 25000002 cycles: 61029260 cumulative IPC: 0.40964 (Simulation time: 0 hr 3 min 25 sec) 

ChampSim completed all CPUs

Region of Interest Statistics

CPU 0 cumulative IPC: 0.40964 instructions: 25000002 cycles: 61029260
ITLB TOTAL     ACCESS:    3566515  HIT:    3566515  MISS:          0  HIT %:        100  MISS %:          0   MPKI: 0
ITLB LOAD TRANSLATION ACCESS:    3566515  HIT:    3566515  MISS:          0  HIT %:        100  MISS %:          0   MPKI: 0
ITLB PREFETCH  REQUESTED:          0  ISSUED:          0  USEFUL:          0  USELESS:          0
ITLB USEFUL LOAD PREFETCHES:          0 PREFETCH ISSUED TO LOWER LEVEL:          0  ACCURACY: -nan
ITLB TIMELY PREFETCHES:          0 LATE PREFETCHES: 0 DROPPED PREFETCHES: 0
ITLB PREFETCHES SAME FILL-ORIGIN LEVEL: 0 DIFFERENT FILL-ORIGIN LEVEL: 0
ITLB AVERAGE MISS LATENCY: -nan cycles
ITLB RQ	ACCESS:    4513655	FORWARD:          0	MERGED:     947140	TO_CACHE:    3566515

DTLB TOTAL     ACCESS:    3549040  HIT:    3514992  MISS:      34048  HIT %:    99.0406  MISS %:   0.959358   MPKI: 1.36192
DTLB LOAD TRANSLATION ACCESS:    3549040  HIT:    3514992  MISS:      34048  HIT %:    99.0406  MISS %:   0.959358   MPKI: 1.36192
DTLB PREFETCH  REQUESTED:          0  ISSUED:          0  USEFUL:          0  USELESS:          0
DTLB USEFUL LOAD PREFETCHES:          0 PREFETCH ISSUED TO LOWER LEVEL:          0  ACCURACY: -nan
DTLB TIMELY PREFETCHES:          0 LATE PREFETCHES: 0 DROPPED PREFETCHES: 0
DTLB PREFETCHES SAME FILL-ORIGIN LEVEL: 0 DIFFERENT FILL-ORIGIN LEVEL: 0
DTLB AVERAGE MISS LATENCY: 124.38 cycles
DTLB RQ	ACCESS:    5620392	FORWARD:          0	MERGED:    2054934	TO_CACHE:    3565458

STLB TOTAL     ACCESS:      34048  HIT:      15572  MISS:      18476  HIT %:    45.7354  MISS %:    54.2646   MPKI: 0.73904
STLB LOAD TRANSLATION ACCESS:      34048  HIT:      15572  MISS:      18476  HIT %:    45.7354  MISS %:    54.2646   MPKI: 0.73904
STLB PREFETCH  REQUESTED:          0  ISSUED:          0  USEFUL:          0  USELESS:          0
STLB USEFUL LOAD PREFETCHES:          0 PREFETCH ISSUED TO LOWER LEVEL:          0  ACCURACY: -nan
STLB TIMELY PREFETCHES:          0 LATE PREFETCHES: 0 DROPPED PREFETCHES: 0
STLB PREFETCHES SAME FILL-ORIGIN LEVEL: 0 DIFFERENT FILL-ORIGIN LEVEL: 0
STLB AVERAGE MISS LATENCY: 211.546 cycles
STLB RQ	ACCESS:      34048	FORWARD:          0	MERGED:          0	TO_CACHE:      34048

STLB Hit, L1D data hit: 0
STLB Hit, L2C data hit: 0
STLB Hit, LLC data hit: 0
STLB Hit, LLC data miss: 0
STLB STLB hints to L2: 0
L1D TOTAL     ACCESS:    5501200  HIT:    3550646  MISS:    1950554  HIT %:    64.5431  MISS %:    35.4569   MPKI: 78.0222
L1D LOAD      ACCESS:    1109534  HIT:     813984  MISS:     295550  HIT %:    73.3627  MISS %:    26.6373   MPKI: 11.822
L1D RFO       ACCESS:    4391666  HIT:    2736662  MISS:    1655004  HIT %:    62.3149  MISS %:    37.6851   MPKI: 66.2002
L1D PREFETCH  REQUESTED:          0  ISSUED:          0  USEFUL:          0  USELESS:          0
L1D USEFUL LOAD PREFETCHES:          0 PREFETCH ISSUED TO LOWER LEVEL:          0  ACCURACY: -nan
L1D TIMELY PREFETCHES:          0 LATE PREFETCHES: 0 DROPPED PREFETCHES: 0
L1D PREFETCHES SAME FILL-ORIGIN LEVEL: 0 DIFFERENT FILL-ORIGIN LEVEL: 0
L1D AVERAGE MISS LATENCY: 400.444 cycles
L1D RQ	ACCESS:    4149749	FORWARD:          0	MERGED:    2719952	TO_CACHE:    1207711
L1D WQ	ACCESS:    4596609	FORWARD:     222086	MERGED:     183928	TO_CACHE:    4412681

L1D UNIQUE REGIONS ACCESSED: 0
L1D REGIONS CONFLICTS: 0
L1D Cross Page Prefetch Requests: 0
L1D Same Page Prefetch Requests: 0
L1D ROI Sum of L1D PQ occupancy: 0
L1D PREFETCHES PUSHED FROM L2C: 0
L1I TOTAL     ACCESS:    4513653  HIT:    4513653  MISS:          0  HIT %:        100  MISS %:          0   MPKI: 0
L1I LOAD      ACCESS:    4513653  HIT:    4513653  MISS:          0  HIT %:        100  MISS %:          0   MPKI: 0
L1I PREFETCH  REQUESTED:          0  ISSUED:          0  USEFUL:          0  USELESS:          0
L1I USEFUL LOAD PREFETCHES:          0 PREFETCH ISSUED TO LOWER LEVEL:          0  ACCURACY: -nan
L1I TIMELY PREFETCHES:          0 LATE PREFETCHES: 0 DROPPED PREFETCHES: 0
L1I PREFETCHES SAME FILL-ORIGIN LEVEL: 0 DIFFERENT FILL-ORIGIN LEVEL: 0
L1I AVERAGE MISS LATENCY: -nan cycles
L1I RQ	ACCESS:    6679529	FORWARD:          0	MERGED:    2165874	TO_CACHE:    4513655

BTB TOTAL     ACCESS:     446809  HIT:     446803  MISS:          6  HIT %:    99.9987  MISS %: 0.00134286   MPKI: 0.00024
BTB BRANCH_DIRECT_JUMP	ACCESS:      72121  HIT:      72120  MISS:          1
BTB BRANCH_INDIRECT	ACCESS:          0  HIT:          0  MISS:          0
BTB BRANCH_CONDITIONAL	ACCESS:     374688  HIT:     374683  MISS:          5
BTB BRANCH_DIRECT_CALL	ACCESS:          0  HIT:          0  MISS:          0
BTB BRANCH_INDIRECT_CALL	ACCESS:          0  HIT:          0  MISS:          0
BTB BRANCH_RETURN	ACCESS:          0  HIT:          0  MISS:          0
BTB BRANCH_OTHER ACCESS:          0  HIT:          0  MISS:          0

L2C TOTAL     ACCESS:    3919586  HIT:     778364  MISS:    3141222  HIT %:    19.8583  MISS %:    80.1417   MPKI: 125.649
L2C LOAD      ACCESS:     295550  HIT:         21  MISS:     295529  HIT %:  0.0071054  MISS %:    99.9929   MPKI: 11.8212
L2C DATA LOAD MPKI: 11.8212
L2C INSTRUCTION LOAD MPKI: 0
L2C RFO       ACCESS:    1655004  HIT:     762200  MISS:     892804  HIT %:    46.0543  MISS %:    53.9457   MPKI: 35.7122
L2C WRITEBACK ACCESS:    1950554  HIT:          0  MISS:    1950554  HIT %:          0  MISS %:        100   MPKI: 78.0222
L2C LOAD TRANSLATION ACCESS:      18478  HIT:      16143  MISS:       2335  HIT %:    87.3634  MISS %:    12.6366   MPKI: 0.0934
L2C PREFETCH  REQUESTED:          0  ISSUED:          0  USEFUL:          0  USELESS:          0
L2C USEFUL LOAD PREFETCHES:          0 PREFETCH ISSUED TO LOWER LEVEL:          0  ACCURACY: -nan
L2C TIMELY PREFETCHES:          0 LATE PREFETCHES: 0 DROPPED PREFETCHES: 0
L2C PREFETCHES SAME FILL-ORIGIN LEVEL: 0 DIFFERENT FILL-ORIGIN LEVEL: 0
L2C AVERAGE MISS LATENCY: 239.224 cycles
L2C RQ	ACCESS:    1969032	FORWARD:          0	MERGED:          0	TO_CACHE:    1969032
L2C WQ	ACCESS:    1950554	FORWARD:          0	MERGED:          0	TO_CACHE:    1950554

L2C Instructions Evicting Data 0
L2C Translations Evicting Data 1506
L2C Data Evicting Data 591635
L2C Instructions Evicting Instructions 0
L2C Translations Evicting Instructions 0
L2C Data Evicting Instructions 0
L2C Instructions Evicting Translations 0
L2C Translations Evicting Translations 16
L2C Data Evicting Translations 1191
L2C Dense regions hint from L2: 0
PSCL5 TOTAL     ACCESS:      18476  HIT:      18476  MISS:          0  HIT %:        100  MISS %:          0   MPKI: 0
PSCL5 LOAD TRANSLATION ACCESS:      18476  HIT:      18476  MISS:          0  HIT %:        100  MISS %:          0   MPKI: 0
PSCL5 PREFETCH  REQUESTED:          0  ISSUED:          0  USEFUL:          0  USELESS:          0
PSCL5 USEFUL LOAD PREFETCHES:          0 PREFETCH ISSUED TO LOWER LEVEL:          0  ACCURACY: -nan
PSCL5 TIMELY PREFETCHES:          0 LATE PREFETCHES: 0 DROPPED PREFETCHES: 0
PSCL5 PREFETCHES SAME FILL-ORIGIN LEVEL: 0 DIFFERENT FILL-ORIGIN LEVEL: 0

PSCL4 TOTAL     ACCESS:      18476  HIT:      18476  MISS:          0  HIT %:        100  MISS %:          0   MPKI: 0
PSCL4 LOAD TRANSLATION ACCESS:      18476  HIT:      18476  MISS:          0  HIT %:        100  MISS %:          0   MPKI: 0
PSCL4 PREFETCH  REQUESTED:          0  ISSUED:          0  USEFUL:          0  USELESS:          0
PSCL4 USEFUL LOAD PREFETCHES:          0 PREFETCH ISSUED TO LOWER LEVEL:          0  ACCURACY: -nan
PSCL4 TIMELY PREFETCHES:          0 LATE PREFETCHES: 0 DROPPED PREFETCHES: 0
PSCL4 PREFETCHES SAME FILL-ORIGIN LEVEL: 0 DIFFERENT FILL-ORIGIN LEVEL: 0

PSCL3 TOTAL     ACCESS:      18476  HIT:      18476  MISS:          0  HIT %:        100  MISS %:          0   MPKI: 0
PSCL3 LOAD TRANSLATION ACCESS:      18476  HIT:      18476  MISS:          0  HIT %:        100  MISS %:          0   MPKI: 0
PSCL3 PREFETCH  REQUESTED:          0  ISSUED:          0  USEFUL:          0  USELESS:          0
PSCL3 USEFUL LOAD PREFETCHES:          0 PREFETCH ISSUED TO LOWER LEVEL:          0  ACCURACY: -nan
PSCL3 TIMELY PREFETCHES:          0 LATE PREFETCHES: 0 DROPPED PREFETCHES: 0
PSCL3 PREFETCHES SAME FILL-ORIGIN LEVEL: 0 DIFFERENT FILL-ORIGIN LEVEL: 0

PSCL2 TOTAL     ACCESS:      18476  HIT:      18456  MISS:         20  HIT %:    99.8918  MISS %:   0.108249   MPKI: 0.0008
PSCL2 LOAD TRANSLATION ACCESS:      18476  HIT:      18456  MISS:         20  HIT %:    99.8918  MISS %:   0.108249   MPKI: 0.0008
PSCL2 PREFETCH  REQUESTED:          0  ISSUED:          0  USEFUL:          0  USELESS:          0
PSCL2 USEFUL LOAD PREFETCHES:          0 PREFETCH ISSUED TO LOWER LEVEL:          0  ACCURACY: -nan
PSCL2 TIMELY PREFETCHES:          0 LATE PREFETCHES: 0 DROPPED PREFETCHES: 0
PSCL2 PREFETCHES SAME FILL-ORIGIN LEVEL: 0 DIFFERENT FILL-ORIGIN LEVEL: 0

LLC TOTAL     ACCESS:    2381414  HIT:       6208  MISS:    2375206  HIT %:   0.260685  MISS %:    99.7393   MPKI: 95.0082
LLC LOAD      ACCESS:     295529  HIT:          2  MISS:     295527  HIT %: 0.000676753  MISS %:    99.9993   MPKI: 11.8211
LLC RFO       ACCESS:     892789  HIT:       6206  MISS:     886583  HIT %:   0.695125  MISS %:    99.3049   MPKI: 35.4633
LLC WRITEBACK ACCESS:    1190761  HIT:          0  MISS:    1190761  HIT %:          0  MISS %:        100   MPKI: 47.6304
LLC LOAD TRANSLATION ACCESS:       2335  HIT:          0  MISS:       2335  HIT %:          0  MISS %:        100   MPKI: 0.0934
LLC PREFETCH  REQUESTED:          0  ISSUED:          0  USEFUL:          0  USELESS:          0
LLC USEFUL LOAD PREFETCHES:          0 PREFETCH ISSUED TO LOWER LEVEL:          0  ACCURACY: -nan
LLC TIMELY PREFETCHES:          0 LATE PREFETCHES: 0 DROPPED PREFETCHES: 0
LLC PREFETCHES SAME FILL-ORIGIN LEVEL: 0 DIFFERENT FILL-ORIGIN LEVEL: 0
LLC AVERAGE MISS LATENCY: 300.979 cycles
LLC RQ	ACCESS:    1190668	FORWARD:          0	MERGED:          0	TO_CACHE:    1190653
LLC WQ	ACCESS:    1190761	FORWARD:         15	MERGED:          0	TO_CACHE:    1190761

LLC Dense regions hint to LLC: 0

RAW hits: 2362563
Reg RAW dependents: 19545483
Loads Generated: 6512314
Loads sent to L1D: 4149749
Stores Generated: 4596601
Stores sent to L1D: 4596609
Major fault: 0 Minor fault: 21636
Allocated PAGES: 21636
Average branch resolution latency (in cycles): 69.6172

DRAM Statistics
 CHANNEL 0
 RQ ROW_BUFFER_HIT:      80303  ROW_BUFFER_MISS:    1104142
 DBUS_CONGESTED:          0
 WQ ROW_BUFFER_HIT:     265927  ROW_BUFFER_MISS:     924588  FULL:      25828

 AVG_CONGESTED_CYCLE: -
 All warmup complete: 2
Channel 0 Bank busy for read cycles: 0
Channel 0 Bank busy for write cycles: 0
Channel 0
Rank 0
0banks busy for read cycles: 16184
0banks busy for write cycles: 0
1banks busy for read cycles: 1847913
1banks busy for write cycles: 111686
2banks busy for read cycles: 670272
2banks busy for write cycles: 111685
3banks busy for read cycles: 701041
3banks busy for write cycles: 111685
4banks busy for read cycles: 6047299
4banks busy for write cycles: 111702
5banks busy for read cycles: 6387391
5banks busy for write cycles: 111702
6banks busy for read cycles: 7156023
6banks busy for write cycles: 115872
7banks busy for read cycles: 6532221
7banks busy for write cycles: 1391723
8banks busy for read cycles: 5811721
8banks busy for write cycles: 23793141

CPU 0 Branch Prediction Accuracy: 97.0468% MPKI: 0.5278 Average ROB Occupancy at Mispredict: 291.319
Branch types
NOT_BRANCH: 24553080 98.2123%
BRANCH_DIRECT_JUMP: 72121 0.288484%
BRANCH_INDIRECT: 0 0%
BRANCH_CONDITIONAL: 374690 1.49876%
BRANCH_DIRECT_CALL: 0 0%
BRANCH_INDIRECT_CALL: 0 0%
BRANCH_RETURN: 0 0%
BRANCH_OTHER: 0 0%

DRAM PAGES: 1048576
Allocated PAGES: 21636
