
*** ChampSim Multicore Out-of-Order Simulator ***

Warmup Instructions: 25000000
Simulation Instructions: 25000000
Number of CPUs: 1
LLC sets: 2048
LLC ways: 16
Off-chip DRAM Size: 4096 MB Channels: 1 Width: 64-bit Data Rate: 6400 MT/s
CPU 0 runs ../../traces/trace4.champsimtrace.xz
.xz
BTB has LRU replacement policy
ITLB has LRU replacement policy
DTLB has LRU replacement policy
STLB has LRU replacement policy
L1I has LRU replacement policy
L1D has LRU replacement policy
CPU 0 Region based L2 offset prefetcher
L2C has LRU replacement policy
LLC has LRU replacement policy
Heartbeat CPU 0 instructions: 10000007 cycles: 2547003 heartbeat IPC: 3.92619 cumulative IPC: 3.92619 (Simulation time: 0 hr 0 min 13 sec) 
Heartbeat CPU 0 instructions: 20000003 cycles: 5090678 heartbeat IPC: 3.93132 cumulative IPC: 3.92875 (Simulation time: 0 hr 0 min 24 sec) 

Warmup complete CPU 0 instructions: 25000001 cycles: 6365346 (Simulation time: 0 hr 0 min 30 sec) 

Heartbeat CPU 0 instructions: 30000000 cycles: 16563452 heartbeat IPC: 0.871629 cumulative IPC: 0.490287 (Simulation time: 0 hr 1 min 0 sec) 
Heartbeat CPU 0 instructions: 40000000 cycles: 37509578 heartbeat IPC: 0.477415 cumulative IPC: 0.48163 (Simulation time: 0 hr 2 min 1 sec) 
Heartbeat CPU 0 instructions: 50000006 cycles: 58542112 heartbeat IPC: 0.475454 cumulative IPC: 0.479141 (Simulation time: 0 hr 3 min 1 sec) 
Finished CPU 0 instructions: 25000005 cycles: 52176766 cumulative IPC: 0.479141 (Simulation time: 0 hr 3 min 1 sec) 

ChampSim completed all CPUs

Region of Interest Statistics

CPU 0 cumulative IPC: 0.479141 instructions: 25000005 cycles: 52176766
ITLB TOTAL     ACCESS:    3546170  HIT:    3546170  MISS:          0  HIT %:        100  MISS %:          0   MPKI: 0
ITLB LOAD TRANSLATION ACCESS:    3546170  HIT:    3546170  MISS:          0  HIT %:        100  MISS %:          0   MPKI: 0
ITLB PREFETCH  REQUESTED:          0  ISSUED:          0  USEFUL:          0  USELESS:          0
ITLB USEFUL LOAD PREFETCHES:          0 PREFETCH ISSUED TO LOWER LEVEL:          0  ACCURACY: -nan
ITLB TIMELY PREFETCHES:          0 LATE PREFETCHES: 0 DROPPED PREFETCHES: 0
ITLB PREFETCHES SAME FILL-ORIGIN LEVEL: 0 DIFFERENT FILL-ORIGIN LEVEL: 0
ITLB AVERAGE MISS LATENCY: -nan cycles
ITLB RQ	ACCESS:    4499600	FORWARD:          0	MERGED:     953430	TO_CACHE:    3546170

DTLB TOTAL     ACCESS:    3592863  HIT:    3558941  MISS:      33922  HIT %:    99.0559  MISS %:    0.94415   MPKI: 1.35688
DTLB LOAD TRANSLATION ACCESS:    3592863  HIT:    3558941  MISS:      33922  HIT %:    99.0559  MISS %:    0.94415   MPKI: 1.35688
DTLB PREFETCH  REQUESTED:          0  ISSUED:          0  USEFUL:          0  USELESS:          0
DTLB USEFUL LOAD PREFETCHES:          0 PREFETCH ISSUED TO LOWER LEVEL:          0  ACCURACY: -nan
DTLB TIMELY PREFETCHES:          0 LATE PREFETCHES: 0 DROPPED PREFETCHES: 0
DTLB PREFETCHES SAME FILL-ORIGIN LEVEL: 0 DIFFERENT FILL-ORIGIN LEVEL: 0
DTLB AVERAGE MISS LATENCY: 116.124 cycles
DTLB RQ	ACCESS:    5636417	FORWARD:          0	MERGED:    2027001	TO_CACHE:    3609416

STLB TOTAL     ACCESS:      33922  HIT:      15518  MISS:      18404  HIT %:    45.7461  MISS %:    54.2539   MPKI: 0.73616
STLB LOAD TRANSLATION ACCESS:      33922  HIT:      15518  MISS:      18404  HIT %:    45.7461  MISS %:    54.2539   MPKI: 0.73616
STLB PREFETCH  REQUESTED:          0  ISSUED:          0  USEFUL:          0  USELESS:          0
STLB USEFUL LOAD PREFETCHES:          0 PREFETCH ISSUED TO LOWER LEVEL:          0  ACCURACY: -nan
STLB TIMELY PREFETCHES:          0 LATE PREFETCHES: 0 DROPPED PREFETCHES: 0
STLB PREFETCHES SAME FILL-ORIGIN LEVEL: 0 DIFFERENT FILL-ORIGIN LEVEL: 0
STLB AVERAGE MISS LATENCY: 196.058 cycles
STLB RQ	ACCESS:      33922	FORWARD:          0	MERGED:          0	TO_CACHE:      33922

STLB Hit, L1D data hit: 0
STLB Hit, L2C data hit: 0
STLB Hit, LLC data hit: 0
STLB Hit, LLC data miss: 0
STLB STLB hints to L2: 0
L1D TOTAL     ACCESS:    5530563  HIT:    3587471  MISS:    1943092  HIT %:    64.8663  MISS %:    35.1337   MPKI: 77.7237
L1D LOAD      ACCESS:    1189492  HIT:     895044  MISS:     294448  HIT %:    75.2459  MISS %:    24.7541   MPKI: 11.7779
L1D RFO       ACCESS:    4341071  HIT:    2692427  MISS:    1648644  HIT %:    62.0222  MISS %:    37.9778   MPKI: 65.9457
L1D PREFETCH  REQUESTED:          0  ISSUED:          0  USEFUL:          0  USELESS:          0
L1D USEFUL LOAD PREFETCHES:          0 PREFETCH ISSUED TO LOWER LEVEL:          0  ACCURACY: -nan
L1D TIMELY PREFETCHES:          0 LATE PREFETCHES: 0 DROPPED PREFETCHES: 0
L1D PREFETCHES SAME FILL-ORIGIN LEVEL: 0 DIFFERENT FILL-ORIGIN LEVEL: 0
L1D AVERAGE MISS LATENCY: 343.787 cycles
L1D RQ	ACCESS:    4311565	FORWARD:          0	MERGED:    2788760	TO_CACHE:    1270027
L1D WQ	ACCESS:    4590390	FORWARD:     252778	MERGED:     224000	TO_CACHE:    4366390

L1D UNIQUE REGIONS ACCESSED: 0
L1D REGIONS CONFLICTS: 0
L1D Cross Page Prefetch Requests: 0
L1D Same Page Prefetch Requests: 0
L1D ROI Sum of L1D PQ occupancy: 0
L1D PREFETCHES PUSHED FROM L2C: 0
L1I TOTAL     ACCESS:    4499598  HIT:    4499598  MISS:          0  HIT %:        100  MISS %:          0   MPKI: 0
L1I LOAD      ACCESS:    4499598  HIT:    4499598  MISS:          0  HIT %:        100  MISS %:          0   MPKI: 0
L1I PREFETCH  REQUESTED:          0  ISSUED:          0  USEFUL:          0  USELESS:          0
L1I USEFUL LOAD PREFETCHES:          0 PREFETCH ISSUED TO LOWER LEVEL:          0  ACCURACY: -nan
L1I TIMELY PREFETCHES:          0 LATE PREFETCHES: 0 DROPPED PREFETCHES: 0
L1I PREFETCHES SAME FILL-ORIGIN LEVEL: 0 DIFFERENT FILL-ORIGIN LEVEL: 0
L1I AVERAGE MISS LATENCY: -nan cycles
L1I RQ	ACCESS:    6649109	FORWARD:          0	MERGED:    2149509	TO_CACHE:    4499600

BTB TOTAL     ACCESS:     445540  HIT:     445534  MISS:          6  HIT %:    99.9987  MISS %: 0.00134668   MPKI: 0.00024
BTB BRANCH_DIRECT_JUMP	ACCESS:      71616  HIT:      71615  MISS:          1
BTB BRANCH_INDIRECT	ACCESS:          0  HIT:          0  MISS:          0
BTB BRANCH_CONDITIONAL	ACCESS:     373924  HIT:     373919  MISS:          5
BTB BRANCH_DIRECT_CALL	ACCESS:          0  HIT:          0  MISS:          0
BTB BRANCH_INDIRECT_CALL	ACCESS:          0  HIT:          0  MISS:          0
BTB BRANCH_RETURN	ACCESS:          0  HIT:          0  MISS:          0
BTB BRANCH_OTHER ACCESS:          0  HIT:          0  MISS:          0

L2C TOTAL     ACCESS:    3947008  HIT:    2757818  MISS:    1189190  HIT %:    69.8711  MISS %:    30.1289   MPKI: 47.5676
L2C LOAD      ACCESS:     294448  HIT:      44200  MISS:     250248  HIT %:    15.0111  MISS %:    84.9889   MPKI: 10.0099
L2C DATA LOAD MPKI: 10.0099
L2C INSTRUCTION LOAD MPKI: 0
L2C RFO       ACCESS:    1648641  HIT:     756327  MISS:     892314  HIT %:    45.8758  MISS %:    54.1242   MPKI: 35.6926
L2C PREFETCH  ACCESS:     336866  HIT:     292634  MISS:      44232  HIT %:    86.8696  MISS %:    13.1304   MPKI: 1.76928
AGUS PREFETCH L1 MISS: 0
L2C DATA PREFETCH MPKI: 1.76928
L2C INSTRUCTION PREFETCH MPKI: 0
L2C WRITEBACK ACCESS:    1648647  HIT:    1648577  MISS:         70  HIT %:    99.9958  MISS %: 0.00424591   MPKI: 0.0028
L2C LOAD TRANSLATION ACCESS:      18406  HIT:      16080  MISS:       2326  HIT %:    87.3628  MISS %:    12.6372   MPKI: 0.09304
L2C PREFETCH  REQUESTED:     851042  ISSUED:     850799  USEFUL:      44177  USELESS:         55
L2C USEFUL LOAD PREFETCHES:      44177 PREFETCH ISSUED TO LOWER LEVEL:     124962  ACCURACY: 35.3523
L2C TIMELY PREFETCHES:      44177 LATE PREFETCHES: 49960 DROPPED PREFETCHES: 0
L2C PREFETCHES SAME FILL-ORIGIN LEVEL: 94192 DIFFERENT FILL-ORIGIN LEVEL: 30770
L2C AVERAGE MISS LATENCY: 554.053 cycles
L2C RQ	ACCESS:    1961512	FORWARD:          0	MERGED:          0	TO_CACHE:    1961509
L2C WQ	ACCESS:    1648651	FORWARD:          3	MERGED:          0	TO_CACHE:    1648651
L2C PQ	ACCESS:     850799	FORWARD:          0	MERGED:     189987	TO_CACHE:     660812

L2C Instructions Evicting Data 0
L2C Translations Evicting Data 2294
L2C Data Evicting Data 1184500
L2C Instructions Evicting Instructions 0
L2C Translations Evicting Instructions 0
L2C Data Evicting Instructions 0
L2C Instructions Evicting Translations 0
L2C Translations Evicting Translations 32
L2C Data Evicting Translations 2294
L2C Dense regions hint from L2: 0
PSCL5 TOTAL     ACCESS:      18404  HIT:      18404  MISS:          0  HIT %:        100  MISS %:          0   MPKI: 0
PSCL5 LOAD TRANSLATION ACCESS:      18404  HIT:      18404  MISS:          0  HIT %:        100  MISS %:          0   MPKI: 0
PSCL5 PREFETCH  REQUESTED:          0  ISSUED:          0  USEFUL:          0  USELESS:          0
PSCL5 USEFUL LOAD PREFETCHES:          0 PREFETCH ISSUED TO LOWER LEVEL:          0  ACCURACY: -nan
PSCL5 TIMELY PREFETCHES:          0 LATE PREFETCHES: 0 DROPPED PREFETCHES: 0
PSCL5 PREFETCHES SAME FILL-ORIGIN LEVEL: 0 DIFFERENT FILL-ORIGIN LEVEL: 0

PSCL4 TOTAL     ACCESS:      18404  HIT:      18404  MISS:          0  HIT %:        100  MISS %:          0   MPKI: 0
PSCL4 LOAD TRANSLATION ACCESS:      18404  HIT:      18404  MISS:          0  HIT %:        100  MISS %:          0   MPKI: 0
PSCL4 PREFETCH  REQUESTED:          0  ISSUED:          0  USEFUL:          0  USELESS:          0
PSCL4 USEFUL LOAD PREFETCHES:          0 PREFETCH ISSUED TO LOWER LEVEL:          0  ACCURACY: -nan
PSCL4 TIMELY PREFETCHES:          0 LATE PREFETCHES: 0 DROPPED PREFETCHES: 0
PSCL4 PREFETCHES SAME FILL-ORIGIN LEVEL: 0 DIFFERENT FILL-ORIGIN LEVEL: 0

PSCL3 TOTAL     ACCESS:      18404  HIT:      18404  MISS:          0  HIT %:        100  MISS %:          0   MPKI: 0
PSCL3 LOAD TRANSLATION ACCESS:      18404  HIT:      18404  MISS:          0  HIT %:        100  MISS %:          0   MPKI: 0
PSCL3 PREFETCH  REQUESTED:          0  ISSUED:          0  USEFUL:          0  USELESS:          0
PSCL3 USEFUL LOAD PREFETCHES:          0 PREFETCH ISSUED TO LOWER LEVEL:          0  ACCURACY: -nan
PSCL3 TIMELY PREFETCHES:          0 LATE PREFETCHES: 0 DROPPED PREFETCHES: 0
PSCL3 PREFETCHES SAME FILL-ORIGIN LEVEL: 0 DIFFERENT FILL-ORIGIN LEVEL: 0

PSCL2 TOTAL     ACCESS:      18404  HIT:      18384  MISS:         20  HIT %:    99.8913  MISS %:   0.108672   MPKI: 0.0008
PSCL2 LOAD TRANSLATION ACCESS:      18404  HIT:      18384  MISS:         20  HIT %:    99.8913  MISS %:   0.108672   MPKI: 0.0008
PSCL2 PREFETCH  REQUESTED:          0  ISSUED:          0  USEFUL:          0  USELESS:          0
PSCL2 USEFUL LOAD PREFETCHES:          0 PREFETCH ISSUED TO LOWER LEVEL:          0  ACCURACY: -nan
PSCL2 TIMELY PREFETCHES:          0 LATE PREFETCHES: 0 DROPPED PREFETCHES: 0
PSCL2 PREFETCHES SAME FILL-ORIGIN LEVEL: 0 DIFFERENT FILL-ORIGIN LEVEL: 0

LLC TOTAL     ACCESS:    2093738  HIT:     913797  MISS:    1179941  HIT %:    43.6443  MISS %:    56.3557   MPKI: 47.1976
LLC LOAD      ACCESS:     200288  HIT:       5373  MISS:     194915  HIT %:    2.68264  MISS %:    97.3174   MPKI: 7.7966
LLC RFO       ACCESS:     892310  HIT:       9183  MISS:     883127  HIT %:    1.02913  MISS %:    98.9709   MPKI: 35.3251
LLC PREFETCH  ACCESS:     106002  HIT:       6475  MISS:      99527  HIT %:    6.10838  MISS %:    93.8916   MPKI: 3.98108
AGUS PREFETCH L1 MISS: 0
LLC WRITEBACK ACCESS:     892812  HIT:     892766  MISS:         46  HIT %:    99.9948  MISS %: 0.00515226   MPKI: 0.00184
LLC LOAD TRANSLATION ACCESS:       2326  HIT:          0  MISS:       2326  HIT %:          0  MISS %:        100   MPKI: 0.09304
LLC PREFETCH  REQUESTED:          0  ISSUED:          0  USEFUL:       5358  USELESS:      94030
LLC USEFUL LOAD PREFETCHES:       5358 PREFETCH ISSUED TO LOWER LEVEL:     111961  ACCURACY: 4.78559
LLC TIMELY PREFETCHES:       5358 LATE PREFETCHES: 12434 DROPPED PREFETCHES: 0
LLC PREFETCHES SAME FILL-ORIGIN LEVEL: 26162 DIFFERENT FILL-ORIGIN LEVEL: 0
LLC AVERAGE MISS LATENCY: 540.239 cycles
LLC RQ	ACCESS:    1094937	FORWARD:          0	MERGED:          0	TO_CACHE:    1094933
LLC WQ	ACCESS:     892816	FORWARD:          4	MERGED:          0	TO_CACHE:     892816
LLC PQ	ACCESS:     124962	FORWARD:          0	MERGED:        677	TO_CACHE:     124285

LLC Dense regions hint to LLC: 0

RAW hits: 2196037
Reg RAW dependents: 19415618
Loads Generated: 6507603
Loads sent to L1D: 4311565
Stores Generated: 4590432
Stores sent to L1D: 4590390
Major fault: 0 Minor fault: 21552
Allocated PAGES: 21552
Average branch resolution latency (in cycles): 65.1277
CPU 0 L2C Region based offset prefetcher final stats

DRAM Statistics
 CHANNEL 0
 RQ ROW_BUFFER_HIT:      92611  ROW_BUFFER_MISS:    1087284
 DBUS_CONGESTED:          0
 WQ ROW_BUFFER_HIT:     191614  ROW_BUFFER_MISS:     691077  FULL:          0

 AVG_CONGESTED_CYCLE: -
 All warmup complete: 2
Channel 0 Bank busy for read cycles: 0
Channel 0 Bank busy for write cycles: 0
Channel 0
Rank 0
0banks busy for read cycles: 16938
0banks busy for write cycles: 0
1banks busy for read cycles: 1753824
1banks busy for write cycles: 91382
2banks busy for read cycles: 645833
2banks busy for write cycles: 91382
3banks busy for read cycles: 736685
3banks busy for write cycles: 91382
4banks busy for read cycles: 4784746
4banks busy for write cycles: 91501
5banks busy for read cycles: 5730699
5banks busy for write cycles: 91381
6banks busy for read cycles: 6488882
6banks busy for write cycles: 91498
7banks busy for read cycles: 6627713
7banks busy for write cycles: 976496
8banks busy for read cycles: 6396677
8banks busy for write cycles: 17469748

CPU 0 Branch Prediction Accuracy: 97.1089% MPKI: 0.51524 Average ROB Occupancy at Mispredict: 267.608
Branch types
NOT_BRANCH: 24554751 98.219%
BRANCH_DIRECT_JUMP: 71616 0.286464%
BRANCH_INDIRECT: 0 0%
BRANCH_CONDITIONAL: 373925 1.4957%
BRANCH_DIRECT_CALL: 0 0%
BRANCH_INDIRECT_CALL: 0 0%
BRANCH_RETURN: 0 0%
BRANCH_OTHER: 0 0%

DRAM PAGES: 1048576
Allocated PAGES: 21552
