
*** ChampSim Multicore Out-of-Order Simulator ***

Warmup Instructions: 25000000
Simulation Instructions: 25000000
Number of CPUs: 1
LLC sets: 2048
LLC ways: 16
Off-chip DRAM Size: 4096 MB Channels: 1 Width: 64-bit Data Rate: 6400 MT/s
CPU 0 runs ../../traces/trace3.champsimtrace.xz
.xz
BTB has LRU replacement policy
ITLB has LRU replacement policy
DTLB has LRU replacement policy
STLB has LRU replacement policy
L1I has LRU replacement policy
L1D has LRU replacement policy
CPU 0 L2C IP-based stride prefetcher
L2C has LRU replacement policy
LLC has LRU replacement policy
Heartbeat CPU 0 instructions: 10000003 cycles: 2500074 heartbeat IPC: 3.99988 cumulative IPC: 3.99988 (Simulation time: 0 hr 0 min 10 sec) 
Heartbeat CPU 0 instructions: 20000007 cycles: 5004034 heartbeat IPC: 3.99368 cumulative IPC: 3.99678 (Simulation time: 0 hr 0 min 18 sec) 

Warmup complete CPU 0 instructions: 25000008 cycles: 6254033 (Simulation time: 0 hr 0 min 21 sec) 

Heartbeat CPU 0 instructions: 30000003 cycles: 12054451 heartbeat IPC: 1.41836 cumulative IPC: 0.862006 (Simulation time: 0 hr 0 min 35 sec) 
Heartbeat CPU 0 instructions: 40000003 cycles: 23783159 heartbeat IPC: 0.852609 cumulative IPC: 0.855718 (Simulation time: 0 hr 1 min 5 sec) 
Heartbeat CPU 0 instructions: 50000001 cycles: 35587516 heartbeat IPC: 0.847145 cumulative IPC: 0.852268 (Simulation time: 0 hr 1 min 34 sec) 
Finished CPU 0 instructions: 25000001 cycles: 29333484 cumulative IPC: 0.852268 (Simulation time: 0 hr 1 min 34 sec) 

ChampSim completed all CPUs

Region of Interest Statistics

CPU 0 cumulative IPC: 0.852268 instructions: 25000001 cycles: 29333484
ITLB TOTAL     ACCESS:    3290428  HIT:    3290428  MISS:          0  HIT %:        100  MISS %:          0   MPKI: 0
ITLB LOAD TRANSLATION ACCESS:    3290428  HIT:    3290428  MISS:          0  HIT %:        100  MISS %:          0   MPKI: 0
ITLB PREFETCH  REQUESTED:          0  ISSUED:          0  USEFUL:          0  USELESS:          0
ITLB USEFUL LOAD PREFETCHES:          0 PREFETCH ISSUED TO LOWER LEVEL:          0  ACCURACY: -nan
ITLB TIMELY PREFETCHES:          0 LATE PREFETCHES: 0 DROPPED PREFETCHES: 0
ITLB PREFETCHES SAME FILL-ORIGIN LEVEL: 0 DIFFERENT FILL-ORIGIN LEVEL: 0
ITLB AVERAGE MISS LATENCY: -nan cycles
ITLB RQ	ACCESS:    4300244	FORWARD:          0	MERGED:    1009816	TO_CACHE:    3290428

DTLB TOTAL     ACCESS:    2542935  HIT:    2527333  MISS:      15602  HIT %:    99.3865  MISS %:   0.613543   MPKI: 0.62408
DTLB LOAD TRANSLATION ACCESS:    2542935  HIT:    2527333  MISS:      15602  HIT %:    99.3865  MISS %:   0.613543   MPKI: 0.62408
DTLB PREFETCH  REQUESTED:          0  ISSUED:          0  USEFUL:          0  USELESS:          0
DTLB USEFUL LOAD PREFETCHES:          0 PREFETCH ISSUED TO LOWER LEVEL:          0  ACCURACY: -nan
DTLB TIMELY PREFETCHES:          0 LATE PREFETCHES: 0 DROPPED PREFETCHES: 0
DTLB PREFETCHES SAME FILL-ORIGIN LEVEL: 0 DIFFERENT FILL-ORIGIN LEVEL: 0
DTLB AVERAGE MISS LATENCY: 95.3735 cycles
DTLB RQ	ACCESS:    4792078	FORWARD:          0	MERGED:    2246903	TO_CACHE:    2545175

STLB TOTAL     ACCESS:      15602  HIT:       7134  MISS:       8468  HIT %:    45.7249  MISS %:    54.2751   MPKI: 0.33872
STLB LOAD TRANSLATION ACCESS:      15602  HIT:       7134  MISS:       8468  HIT %:    45.7249  MISS %:    54.2751   MPKI: 0.33872
STLB PREFETCH  REQUESTED:          0  ISSUED:          0  USEFUL:          0  USELESS:          0
STLB USEFUL LOAD PREFETCHES:          0 PREFETCH ISSUED TO LOWER LEVEL:          0  ACCURACY: -nan
STLB TIMELY PREFETCHES:          0 LATE PREFETCHES: 0 DROPPED PREFETCHES: 0
STLB PREFETCHES SAME FILL-ORIGIN LEVEL: 0 DIFFERENT FILL-ORIGIN LEVEL: 0
STLB AVERAGE MISS LATENCY: 154.696 cycles
STLB RQ	ACCESS:      15602	FORWARD:          0	MERGED:          0	TO_CACHE:      15602

STLB Hit, L1D data hit: 0
STLB Hit, L2C data hit: 0
STLB Hit, LLC data hit: 0
STLB Hit, LLC data miss: 0
STLB STLB hints to L2: 0
L1D TOTAL     ACCESS:    4713429  HIT:    3819563  MISS:     893866  HIT %:    81.0358  MISS %:    18.9642   MPKI: 35.7546
L1D LOAD      ACCESS:    1089545  HIT:     954106  MISS:     135439  HIT %:    87.5692  MISS %:    12.4308   MPKI: 5.41756
L1D RFO       ACCESS:    3623884  HIT:    2865457  MISS:     758427  HIT %:    79.0714  MISS %:    20.9286   MPKI: 30.3371
L1D PREFETCH  REQUESTED:          0  ISSUED:          0  USEFUL:          0  USELESS:          0
L1D USEFUL LOAD PREFETCHES:          0 PREFETCH ISSUED TO LOWER LEVEL:          0  ACCURACY: -nan
L1D TIMELY PREFETCHES:          0 LATE PREFETCHES: 0 DROPPED PREFETCHES: 0
L1D PREFETCHES SAME FILL-ORIGIN LEVEL: 0 DIFFERENT FILL-ORIGIN LEVEL: 0
L1D AVERAGE MISS LATENCY: 234.454 cycles
L1D RQ	ACCESS:    3093781	FORWARD:          0	MERGED:    1749743	TO_CACHE:    1167419
L1D WQ	ACCESS:    3724072	FORWARD:     176619	MERGED:      99413	TO_CACHE:    3624659

L1D UNIQUE REGIONS ACCESSED: 0
L1D REGIONS CONFLICTS: 0
L1D Cross Page Prefetch Requests: 0
L1D Same Page Prefetch Requests: 0
L1D ROI Sum of L1D PQ occupancy: 0
L1D PREFETCHES PUSHED FROM L2C: 0
L1I TOTAL     ACCESS:    4300244  HIT:    4300244  MISS:          0  HIT %:        100  MISS %:          0   MPKI: 0
L1I LOAD      ACCESS:    4300244  HIT:    4300244  MISS:          0  HIT %:        100  MISS %:          0   MPKI: 0
L1I PREFETCH  REQUESTED:          0  ISSUED:          0  USEFUL:          0  USELESS:          0
L1I USEFUL LOAD PREFETCHES:          0 PREFETCH ISSUED TO LOWER LEVEL:          0  ACCURACY: -nan
L1I TIMELY PREFETCHES:          0 LATE PREFETCHES: 0 DROPPED PREFETCHES: 0
L1I PREFETCHES SAME FILL-ORIGIN LEVEL: 0 DIFFERENT FILL-ORIGIN LEVEL: 0
L1I AVERAGE MISS LATENCY: -nan cycles
L1I RQ	ACCESS:    6072823	FORWARD:          0	MERGED:    1772579	TO_CACHE:    4300244

BTB TOTAL     ACCESS:     268029  HIT:     268023  MISS:          6  HIT %:    99.9978  MISS %: 0.00223856   MPKI: 0.00024
BTB BRANCH_DIRECT_JUMP	ACCESS:       1334  HIT:       1333  MISS:          1
BTB BRANCH_INDIRECT	ACCESS:          0  HIT:          0  MISS:          0
BTB BRANCH_CONDITIONAL	ACCESS:     266695  HIT:     266690  MISS:          5
BTB BRANCH_DIRECT_CALL	ACCESS:          0  HIT:          0  MISS:          0
BTB BRANCH_INDIRECT_CALL	ACCESS:          0  HIT:          0  MISS:          0
BTB BRANCH_RETURN	ACCESS:          0  HIT:          0  MISS:          0
BTB BRANCH_OTHER ACCESS:          0  HIT:          0  MISS:          0

L2C TOTAL     ACCESS:    1821437  HIT:    1266524  MISS:     554913  HIT %:    69.5343  MISS %:    30.4657   MPKI: 22.1965
L2C LOAD      ACCESS:     135439  HIT:      61198  MISS:      74241  HIT %:    45.1849  MISS %:    54.8151   MPKI: 2.96964
L2C DATA LOAD MPKI: 2.96964
L2C INSTRUCTION LOAD MPKI: 0
L2C RFO       ACCESS:     758427  HIT:     340027  MISS:     418400  HIT %:    44.8332  MISS %:    55.1668   MPKI: 16.736
L2C PREFETCH  ACCESS:     160672  HIT:      99482  MISS:      61190  HIT %:    61.9162  MISS %:    38.0838   MPKI: 2.4476
AGUS PREFETCH L1 MISS: 0
L2C DATA PREFETCH MPKI: 2.4476
L2C INSTRUCTION PREFETCH MPKI: 0
L2C WRITEBACK ACCESS:     758430  HIT:     758418  MISS:         12  HIT %:    99.9984  MISS %: 0.00158222   MPKI: 0.00048
L2C LOAD TRANSLATION ACCESS:       8469  HIT:       7399  MISS:       1070  HIT %:    87.3657  MISS %:    12.6343   MPKI: 0.0428
L2C PREFETCH  REQUESTED:     162734  ISSUED:     162734  USEFUL:      61198  USELESS:          0
L2C USEFUL LOAD PREFETCHES:      61198 PREFETCH ISSUED TO LOWER LEVEL:      62112  ACCURACY: 98.5285
L2C TIMELY PREFETCHES:      61198 LATE PREFETCHES: 97 DROPPED PREFETCHES: 0
L2C PREFETCHES SAME FILL-ORIGIN LEVEL: 61287 DIFFERENT FILL-ORIGIN LEVEL: 825
L2C AVERAGE MISS LATENCY: 400.973 cycles
L2C RQ	ACCESS:     902337	FORWARD:          0	MERGED:          0	TO_CACHE:     902337
L2C WQ	ACCESS:     758430	FORWARD:          0	MERGED:          0	TO_CACHE:     758430
L2C PQ	ACCESS:     162734	FORWARD:          0	MERGED:         26	TO_CACHE:     162708

L2C Instructions Evicting Data 0
L2C Translations Evicting Data 1060
L2C Data Evicting Data 552762
L2C Instructions Evicting Instructions 0
L2C Translations Evicting Instructions 0
L2C Data Evicting Instructions 0
L2C Instructions Evicting Translations 0
L2C Translations Evicting Translations 10
L2C Data Evicting Translations 1069
L2C Dense regions hint from L2: 0
PSCL5 TOTAL     ACCESS:       8468  HIT:       8468  MISS:          0  HIT %:        100  MISS %:          0   MPKI: 0
PSCL5 LOAD TRANSLATION ACCESS:       8468  HIT:       8468  MISS:          0  HIT %:        100  MISS %:          0   MPKI: 0
PSCL5 PREFETCH  REQUESTED:          0  ISSUED:          0  USEFUL:          0  USELESS:          0
PSCL5 USEFUL LOAD PREFETCHES:          0 PREFETCH ISSUED TO LOWER LEVEL:          0  ACCURACY: -nan
PSCL5 TIMELY PREFETCHES:          0 LATE PREFETCHES: 0 DROPPED PREFETCHES: 0
PSCL5 PREFETCHES SAME FILL-ORIGIN LEVEL: 0 DIFFERENT FILL-ORIGIN LEVEL: 0

PSCL4 TOTAL     ACCESS:       8468  HIT:       8468  MISS:          0  HIT %:        100  MISS %:          0   MPKI: 0
PSCL4 LOAD TRANSLATION ACCESS:       8468  HIT:       8468  MISS:          0  HIT %:        100  MISS %:          0   MPKI: 0
PSCL4 PREFETCH  REQUESTED:          0  ISSUED:          0  USEFUL:          0  USELESS:          0
PSCL4 USEFUL LOAD PREFETCHES:          0 PREFETCH ISSUED TO LOWER LEVEL:          0  ACCURACY: -nan
PSCL4 TIMELY PREFETCHES:          0 LATE PREFETCHES: 0 DROPPED PREFETCHES: 0
PSCL4 PREFETCHES SAME FILL-ORIGIN LEVEL: 0 DIFFERENT FILL-ORIGIN LEVEL: 0

PSCL3 TOTAL     ACCESS:       8468  HIT:       8468  MISS:          0  HIT %:        100  MISS %:          0   MPKI: 0
PSCL3 LOAD TRANSLATION ACCESS:       8468  HIT:       8468  MISS:          0  HIT %:        100  MISS %:          0   MPKI: 0
PSCL3 PREFETCH  REQUESTED:          0  ISSUED:          0  USEFUL:          0  USELESS:          0
PSCL3 USEFUL LOAD PREFETCHES:          0 PREFETCH ISSUED TO LOWER LEVEL:          0  ACCURACY: -nan
PSCL3 TIMELY PREFETCHES:          0 LATE PREFETCHES: 0 DROPPED PREFETCHES: 0
PSCL3 PREFETCHES SAME FILL-ORIGIN LEVEL: 0 DIFFERENT FILL-ORIGIN LEVEL: 0

PSCL2 TOTAL     ACCESS:       8468  HIT:       8459  MISS:          9  HIT %:    99.8937  MISS %:   0.106282   MPKI: 0.00036
PSCL2 LOAD TRANSLATION ACCESS:       8468  HIT:       8459  MISS:          9  HIT %:    99.8937  MISS %:   0.106282   MPKI: 0.00036
PSCL2 PREFETCH  REQUESTED:          0  ISSUED:          0  USEFUL:          0  USELESS:          0
PSCL2 USEFUL LOAD PREFETCHES:          0 PREFETCH ISSUED TO LOWER LEVEL:          0  ACCURACY: -nan
PSCL2 TIMELY PREFETCHES:          0 LATE PREFETCHES: 0 DROPPED PREFETCHES: 0
PSCL2 PREFETCHES SAME FILL-ORIGIN LEVEL: 0 DIFFERENT FILL-ORIGIN LEVEL: 0

LLC TOTAL     ACCESS:     973945  HIT:     431143  MISS:     542802  HIT %:    44.2677  MISS %:    55.7323   MPKI: 21.7121
LLC LOAD      ACCESS:      74144  HIT:        142  MISS:      74002  HIT %:   0.191519  MISS %:    99.8085   MPKI: 2.96008
LLC RFO       ACCESS:     418397  HIT:      12105  MISS:     406292  HIT %:    2.89319  MISS %:    97.1068   MPKI: 16.2517
LLC PREFETCH  ACCESS:      62052  HIT:        623  MISS:      61429  HIT %:      1.004  MISS %:     98.996   MPKI: 2.45716
AGUS PREFETCH L1 MISS: 0
LLC WRITEBACK ACCESS:     418282  HIT:     418273  MISS:          9  HIT %:    99.9978  MISS %: 0.00215166   MPKI: 0.00036
LLC LOAD TRANSLATION ACCESS:       1070  HIT:          0  MISS:       1070  HIT %:          0  MISS %:        100   MPKI: 0.0428
LLC PREFETCH  REQUESTED:          0  ISSUED:          0  USEFUL:        142  USELESS:      60202
LLC USEFUL LOAD PREFETCHES:        142 PREFETCH ISSUED TO LOWER LEVEL:      61443  ACCURACY: 0.231109
LLC TIMELY PREFETCHES:        142 LATE PREFETCHES: 14 DROPPED PREFETCHES: 0
LLC PREFETCHES SAME FILL-ORIGIN LEVEL: 741 DIFFERENT FILL-ORIGIN LEVEL: 0
LLC AVERAGE MISS LATENCY: 379.442 cycles
LLC RQ	ACCESS:     493616	FORWARD:          0	MERGED:          0	TO_CACHE:     493613
LLC WQ	ACCESS:     418282	FORWARD:          3	MERGED:          0	TO_CACHE:     418282
LLC PQ	ACCESS:      62112	FORWARD:          0	MERGED:          0	TO_CACHE:      62112

LLC Dense regions hint to LLC: 0

RAW hits: 2745198
Reg RAW dependents: 20114397
Loads Generated: 5838980
Loads sent to L1D: 3093781
Stores Generated: 3724076
Stores sent to L1D: 3724072
Major fault: 0 Minor fault: 11618
Allocated PAGES: 11618
Average branch resolution latency (in cycles): 21.2094
CPU 0 L2C PC-based stride prefetcher final stats

DRAM Statistics
 CHANNEL 0
 RQ ROW_BUFFER_HIT:      29531  ROW_BUFFER_MISS:     513263
 DBUS_CONGESTED:          0
 WQ ROW_BUFFER_HIT:      86797  ROW_BUFFER_MISS:     321816  FULL:          0

 AVG_CONGESTED_CYCLE: -
 All warmup complete: 2
Channel 0 Bank busy for read cycles: 0
Channel 0 Bank busy for write cycles: 0
Channel 0
Rank 0
0banks busy for read cycles: 28943
0banks busy for write cycles: 0
1banks busy for read cycles: 2740019
1banks busy for write cycles: 46433
2banks busy for read cycles: 1376061
2banks busy for write cycles: 46433
3banks busy for read cycles: 3026439
3banks busy for write cycles: 46433
4banks busy for read cycles: 4211961
4banks busy for write cycles: 46448
5banks busy for read cycles: 3236479
5banks busy for write cycles: 46440
6banks busy for read cycles: 4635972
6banks busy for write cycles: 47149
7banks busy for read cycles: 732056
7banks busy for write cycles: 468821
8banks busy for read cycles: 437614
8banks busy for write cycles: 8159784

CPU 0 Branch Prediction Accuracy: 99.8986% MPKI: 0.01088 Average ROB Occupancy at Mispredict: 276.493
Branch types
NOT_BRANCH: 24731879 98.9275%
BRANCH_DIRECT_JUMP: 1334 0.005336%
BRANCH_INDIRECT: 0 0%
BRANCH_CONDITIONAL: 266863 1.06745%
BRANCH_DIRECT_CALL: 0 0%
BRANCH_INDIRECT_CALL: 0 0%
BRANCH_RETURN: 0 0%
BRANCH_OTHER: 0 0%

DRAM PAGES: 1048576
Allocated PAGES: 11618
