
*** ChampSim Multicore Out-of-Order Simulator ***

Warmup Instructions: 25000000
Simulation Instructions: 25000000
Number of CPUs: 1
LLC sets: 2048
LLC ways: 16
Off-chip DRAM Size: 4096 MB Channels: 1 Width: 64-bit Data Rate: 6400 MT/s
CPU 0 runs ../../traces/trace3.champsimtrace.xz
.xz
BTB has LRU replacement policy
ITLB has LRU replacement policy
DTLB has LRU replacement policy
STLB has LRU replacement policy
L1I has LRU replacement policy
L1D has LRU replacement policy
CPU 0 Region based L2 offset prefetcher
L2C has LRU replacement policy
LLC has LRU replacement policy
Heartbeat CPU 0 instructions: 10000003 cycles: 2500074 heartbeat IPC: 3.99988 cumulative IPC: 3.99988 (Simulation time: 0 hr 0 min 8 sec) 
Heartbeat CPU 0 instructions: 20000007 cycles: 5004038 heartbeat IPC: 3.99367 cumulative IPC: 3.99677 (Simulation time: 0 hr 0 min 16 sec) 

Warmup complete CPU 0 instructions: 25000008 cycles: 6254037 (Simulation time: 0 hr 0 min 20 sec) 

Heartbeat CPU 0 instructions: 30000005 cycles: 11550603 heartbeat IPC: 1.52752 cumulative IPC: 0.944007 (Simulation time: 0 hr 0 min 34 sec) 
Heartbeat CPU 0 instructions: 40000003 cycles: 22263817 heartbeat IPC: 0.933426 cumulative IPC: 0.936927 (Simulation time: 0 hr 1 min 3 sec) 
Heartbeat CPU 0 instructions: 50000001 cycles: 33052578 heartbeat IPC: 0.92689 cumulative IPC: 0.932886 (Simulation time: 0 hr 1 min 31 sec) 
Finished CPU 0 instructions: 25000002 cycles: 26798548 cumulative IPC: 0.932886 (Simulation time: 0 hr 1 min 31 sec) 

ChampSim completed all CPUs

Region of Interest Statistics

CPU 0 cumulative IPC: 0.932886 instructions: 25000002 cycles: 26798548
ITLB TOTAL     ACCESS:    3294312  HIT:    3294312  MISS:          0  HIT %:        100  MISS %:          0   MPKI: 0
ITLB LOAD TRANSLATION ACCESS:    3294312  HIT:    3294312  MISS:          0  HIT %:        100  MISS %:          0   MPKI: 0
ITLB PREFETCH  REQUESTED:          0  ISSUED:          0  USEFUL:          0  USELESS:          0
ITLB USEFUL LOAD PREFETCHES:          0 PREFETCH ISSUED TO LOWER LEVEL:          0  ACCURACY: -nan
ITLB TIMELY PREFETCHES:          0 LATE PREFETCHES: 0 DROPPED PREFETCHES: 0
ITLB PREFETCHES SAME FILL-ORIGIN LEVEL: 0 DIFFERENT FILL-ORIGIN LEVEL: 0
ITLB AVERAGE MISS LATENCY: -nan cycles
ITLB RQ	ACCESS:    4303092	FORWARD:          0	MERGED:    1008781	TO_CACHE:    3294311

DTLB TOTAL     ACCESS:    2906355  HIT:    2890753  MISS:      15602  HIT %:    99.4632  MISS %:   0.536824   MPKI: 0.62408
DTLB LOAD TRANSLATION ACCESS:    2906355  HIT:    2890753  MISS:      15602  HIT %:    99.4632  MISS %:   0.536824   MPKI: 0.62408
DTLB PREFETCH  REQUESTED:          0  ISSUED:          0  USEFUL:          0  USELESS:          0
DTLB USEFUL LOAD PREFETCHES:          0 PREFETCH ISSUED TO LOWER LEVEL:          0  ACCURACY: -nan
DTLB TIMELY PREFETCHES:          0 LATE PREFETCHES: 0 DROPPED PREFETCHES: 0
DTLB PREFETCHES SAME FILL-ORIGIN LEVEL: 0 DIFFERENT FILL-ORIGIN LEVEL: 0
DTLB AVERAGE MISS LATENCY: 100.945 cycles
DTLB RQ	ACCESS:    5131490	FORWARD:          0	MERGED:    2222410	TO_CACHE:    2909080

STLB TOTAL     ACCESS:      15602  HIT:       7134  MISS:       8468  HIT %:    45.7249  MISS %:    54.2751   MPKI: 0.33872
STLB LOAD TRANSLATION ACCESS:      15602  HIT:       7134  MISS:       8468  HIT %:    45.7249  MISS %:    54.2751   MPKI: 0.33872
STLB PREFETCH  REQUESTED:          0  ISSUED:          0  USEFUL:          0  USELESS:          0
STLB USEFUL LOAD PREFETCHES:          0 PREFETCH ISSUED TO LOWER LEVEL:          0  ACCURACY: -nan
STLB TIMELY PREFETCHES:          0 LATE PREFETCHES: 0 DROPPED PREFETCHES: 0
STLB PREFETCHES SAME FILL-ORIGIN LEVEL: 0 DIFFERENT FILL-ORIGIN LEVEL: 0
STLB AVERAGE MISS LATENCY: 167.214 cycles
STLB RQ	ACCESS:      15602	FORWARD:          0	MERGED:          0	TO_CACHE:      15602

STLB Hit, L1D data hit: 0
STLB Hit, L2C data hit: 0
STLB Hit, LLC data hit: 0
STLB Hit, LLC data miss: 0
STLB STLB hints to L2: 0
L1D TOTAL     ACCESS:    5066958  HIT:    4173113  MISS:     893845  HIT %:    82.3593  MISS %:    17.6407   MPKI: 35.7538
L1D LOAD      ACCESS:    1441129  HIT:    1305690  MISS:     135439  HIT %:    90.6019  MISS %:    9.39812   MPKI: 5.41756
L1D RFO       ACCESS:    3625829  HIT:    2867423  MISS:     758406  HIT %:    79.0832  MISS %:    20.9168   MPKI: 30.3362
L1D PREFETCH  REQUESTED:          0  ISSUED:          0  USEFUL:          0  USELESS:          0
L1D USEFUL LOAD PREFETCHES:          0 PREFETCH ISSUED TO LOWER LEVEL:          0  ACCURACY: -nan
L1D TIMELY PREFETCHES:          0 LATE PREFETCHES: 0 DROPPED PREFETCHES: 0
L1D PREFETCHES SAME FILL-ORIGIN LEVEL: 0 DIFFERENT FILL-ORIGIN LEVEL: 0
L1D AVERAGE MISS LATENCY: 264.783 cycles
L1D RQ	ACCESS:    3675025	FORWARD:          0	MERGED:    1925128	TO_CACHE:    1502201
L1D WQ	ACCESS:    3724072	FORWARD:     247696	MERGED:      94783	TO_CACHE:    3629289

L1D UNIQUE REGIONS ACCESSED: 0
L1D REGIONS CONFLICTS: 0
L1D Cross Page Prefetch Requests: 0
L1D Same Page Prefetch Requests: 0
L1D ROI Sum of L1D PQ occupancy: 0
L1D PREFETCHES PUSHED FROM L2C: 0
L1I TOTAL     ACCESS:    4303091  HIT:    4303091  MISS:          0  HIT %:        100  MISS %:          0   MPKI: 0
L1I LOAD      ACCESS:    4303091  HIT:    4303091  MISS:          0  HIT %:        100  MISS %:          0   MPKI: 0
L1I PREFETCH  REQUESTED:          0  ISSUED:          0  USEFUL:          0  USELESS:          0
L1I USEFUL LOAD PREFETCHES:          0 PREFETCH ISSUED TO LOWER LEVEL:          0  ACCURACY: -nan
L1I TIMELY PREFETCHES:          0 LATE PREFETCHES: 0 DROPPED PREFETCHES: 0
L1I PREFETCHES SAME FILL-ORIGIN LEVEL: 0 DIFFERENT FILL-ORIGIN LEVEL: 0
L1I AVERAGE MISS LATENCY: -nan cycles
L1I RQ	ACCESS:    6111304	FORWARD:          0	MERGED:    1808212	TO_CACHE:    4303092

BTB TOTAL     ACCESS:     268029  HIT:     268023  MISS:          6  HIT %:    99.9978  MISS %: 0.00223856   MPKI: 0.00024
BTB BRANCH_DIRECT_JUMP	ACCESS:       1334  HIT:       1333  MISS:          1
BTB BRANCH_INDIRECT	ACCESS:          0  HIT:          0  MISS:          0
BTB BRANCH_CONDITIONAL	ACCESS:     266695  HIT:     266690  MISS:          5
BTB BRANCH_DIRECT_CALL	ACCESS:          0  HIT:          0  MISS:          0
BTB BRANCH_INDIRECT_CALL	ACCESS:          0  HIT:          0  MISS:          0
BTB BRANCH_RETURN	ACCESS:          0  HIT:          0  MISS:          0
BTB BRANCH_OTHER ACCESS:          0  HIT:          0  MISS:          0

L2C TOTAL     ACCESS:    1894159  HIT:    1339162  MISS:     554997  HIT %:    70.6996  MISS %:    29.3004   MPKI: 22.1999
L2C LOAD      ACCESS:     135439  HIT:      45083  MISS:      90356  HIT %:    33.2866  MISS %:    66.7134   MPKI: 3.61424
L2C DATA LOAD MPKI: 3.61424
L2C INSTRUCTION LOAD MPKI: 0
L2C RFO       ACCESS:     758408  HIT:     339941  MISS:     418467  HIT %:     44.823  MISS %:     55.177   MPKI: 16.7387
L2C PREFETCH  ACCESS:     233432  HIT:     188341  MISS:      45091  HIT %:    80.6835  MISS %:    19.3165   MPKI: 1.80364
AGUS PREFETCH L1 MISS: 0
L2C DATA PREFETCH MPKI: 1.80364
L2C INSTRUCTION PREFETCH MPKI: 0
L2C WRITEBACK ACCESS:     758410  HIT:     758398  MISS:         12  HIT %:    99.9984  MISS %: 0.00158226   MPKI: 0.00048
L2C LOAD TRANSLATION ACCESS:       8470  HIT:       7399  MISS:       1071  HIT %:    87.3554  MISS %:    12.6446   MPKI: 0.04284
L2C PREFETCH  REQUESTED:     384395  ISSUED:     384395  USEFUL:      45083  USELESS:          6
L2C USEFUL LOAD PREFETCHES:      45083 PREFETCH ISSUED TO LOWER LEVEL:      76438  ACCURACY: 58.9798
L2C TIMELY PREFETCHES:      45083 LATE PREFETCHES: 21354 DROPPED PREFETCHES: 0
L2C PREFETCHES SAME FILL-ORIGIN LEVEL: 66447 DIFFERENT FILL-ORIGIN LEVEL: 9991
L2C AVERAGE MISS LATENCY: 435.06 cycles
L2C RQ	ACCESS:     902331	FORWARD:          0	MERGED:          0	TO_CACHE:     902331
L2C WQ	ACCESS:     758411	FORWARD:          0	MERGED:          0	TO_CACHE:     758411
L2C PQ	ACCESS:     384395	FORWARD:          0	MERGED:      64217	TO_CACHE:     320178

L2C Instructions Evicting Data 0
L2C Translations Evicting Data 1061
L2C Data Evicting Data 552846
L2C Instructions Evicting Instructions 0
L2C Translations Evicting Instructions 0
L2C Data Evicting Instructions 0
L2C Instructions Evicting Translations 0
L2C Translations Evicting Translations 10
L2C Data Evicting Translations 1068
L2C Dense regions hint from L2: 0
PSCL5 TOTAL     ACCESS:       8468  HIT:       8468  MISS:          0  HIT %:        100  MISS %:          0   MPKI: 0
PSCL5 LOAD TRANSLATION ACCESS:       8468  HIT:       8468  MISS:          0  HIT %:        100  MISS %:          0   MPKI: 0
PSCL5 PREFETCH  REQUESTED:          0  ISSUED:          0  USEFUL:          0  USELESS:          0
PSCL5 USEFUL LOAD PREFETCHES:          0 PREFETCH ISSUED TO LOWER LEVEL:          0  ACCURACY: -nan
PSCL5 TIMELY PREFETCHES:          0 LATE PREFETCHES: 0 DROPPED PREFETCHES: 0
PSCL5 PREFETCHES SAME FILL-ORIGIN LEVEL: 0 DIFFERENT FILL-ORIGIN LEVEL: 0

PSCL4 TOTAL     ACCESS:       8468  HIT:       8468  MISS:          0  HIT %:        100  MISS %:          0   MPKI: 0
PSCL4 LOAD TRANSLATION ACCESS:       8468  HIT:       8468  MISS:          0  HIT %:        100  MISS %:          0   MPKI: 0
PSCL4 PREFETCH  REQUESTED:          0  ISSUED:          0  USEFUL:          0  USELESS:          0
PSCL4 USEFUL LOAD PREFETCHES:          0 PREFETCH ISSUED TO LOWER LEVEL:          0  ACCURACY: -nan
PSCL4 TIMELY PREFETCHES:          0 LATE PREFETCHES: 0 DROPPED PREFETCHES: 0
PSCL4 PREFETCHES SAME FILL-ORIGIN LEVEL: 0 DIFFERENT FILL-ORIGIN LEVEL: 0

PSCL3 TOTAL     ACCESS:       8468  HIT:       8468  MISS:          0  HIT %:        100  MISS %:          0   MPKI: 0
PSCL3 LOAD TRANSLATION ACCESS:       8468  HIT:       8468  MISS:          0  HIT %:        100  MISS %:          0   MPKI: 0
PSCL3 PREFETCH  REQUESTED:          0  ISSUED:          0  USEFUL:          0  USELESS:          0
PSCL3 USEFUL LOAD PREFETCHES:          0 PREFETCH ISSUED TO LOWER LEVEL:          0  ACCURACY: -nan
PSCL3 TIMELY PREFETCHES:          0 LATE PREFETCHES: 0 DROPPED PREFETCHES: 0
PSCL3 PREFETCHES SAME FILL-ORIGIN LEVEL: 0 DIFFERENT FILL-ORIGIN LEVEL: 0

PSCL2 TOTAL     ACCESS:       8468  HIT:       8458  MISS:         10  HIT %:    99.8819  MISS %:   0.118092   MPKI: 0.0004
PSCL2 LOAD TRANSLATION ACCESS:       8468  HIT:       8458  MISS:         10  HIT %:    99.8819  MISS %:   0.118092   MPKI: 0.0004
PSCL2 PREFETCH  REQUESTED:          0  ISSUED:          0  USEFUL:          0  USELESS:          0
PSCL2 USEFUL LOAD PREFETCHES:          0 PREFETCH ISSUED TO LOWER LEVEL:          0  ACCURACY: -nan
PSCL2 TIMELY PREFETCHES:          0 LATE PREFETCHES: 0 DROPPED PREFETCHES: 0
PSCL2 PREFETCHES SAME FILL-ORIGIN LEVEL: 0 DIFFERENT FILL-ORIGIN LEVEL: 0

LLC TOTAL     ACCESS:     978867  HIT:     436059  MISS:     542808  HIT %:    44.5473  MISS %:    55.4527   MPKI: 21.7123
LLC LOAD      ACCESS:      69002  HIT:       1340  MISS:      67662  HIT %:    1.94197  MISS %:     98.058   MPKI: 2.70648
LLC RFO       ACCESS:     418467  HIT:      12189  MISS:     406278  HIT %:    2.91277  MISS %:    97.0872   MPKI: 16.2511
LLC PREFETCH  ACCESS:      71929  HIT:       4143  MISS:      67786  HIT %:    5.75985  MISS %:    94.2402   MPKI: 2.71144
AGUS PREFETCH L1 MISS: 0
LLC WRITEBACK ACCESS:     418398  HIT:     418387  MISS:         11  HIT %:    99.9974  MISS %: 0.00262908   MPKI: 0.00044
LLC LOAD TRANSLATION ACCESS:       1071  HIT:          0  MISS:       1071  HIT %:          0  MISS %:        100   MPKI: 0.04284
LLC PREFETCH  REQUESTED:          0  ISSUED:          0  USEFUL:       1340  USELESS:      65720
LLC USEFUL LOAD PREFETCHES:       1340 PREFETCH ISSUED TO LOWER LEVEL:      68540  ACCURACY: 1.95506
LLC TIMELY PREFETCHES:       1340 LATE PREFETCHES: 752 DROPPED PREFETCHES: 0
LLC PREFETCHES SAME FILL-ORIGIN LEVEL: 8175 DIFFERENT FILL-ORIGIN LEVEL: 0
LLC AVERAGE MISS LATENCY: 423.631 cycles
LLC RQ	ACCESS:     488553	FORWARD:          0	MERGED:          0	TO_CACHE:     488553
LLC WQ	ACCESS:     418402	FORWARD:          0	MERGED:          0	TO_CACHE:     418402
LLC PQ	ACCESS:      76438	FORWARD:          0	MERGED:         27	TO_CACHE:      76411

LLC Dense regions hint to LLC: 0

RAW hits: 2163939
Reg RAW dependents: 19994136
Loads Generated: 5838965
Loads sent to L1D: 3675025
Stores Generated: 3724073
Stores sent to L1D: 3724072
Major fault: 0 Minor fault: 11618
Allocated PAGES: 11618
Average branch resolution latency (in cycles): 24.7473
CPU 0 L2C Region based offset prefetcher final stats

DRAM Statistics
 CHANNEL 0
 RQ ROW_BUFFER_HIT:      26611  ROW_BUFFER_MISS:     516186
 DBUS_CONGESTED:          0
 WQ ROW_BUFFER_HIT:      88539  ROW_BUFFER_MISS:     320253  FULL:          0

 AVG_CONGESTED_CYCLE: -
 All warmup complete: 2
Channel 0 Bank busy for read cycles: 0
Channel 0 Bank busy for write cycles: 0
Channel 0
Rank 0
0banks busy for read cycles: 18100
0banks busy for write cycles: 0
1banks busy for read cycles: 1525419
1banks busy for write cycles: 45490
2banks busy for read cycles: 611397
2banks busy for write cycles: 45586
3banks busy for read cycles: 1018053
3banks busy for write cycles: 45489
4banks busy for read cycles: 4531319
4banks busy for write cycles: 45489
5banks busy for read cycles: 3899586
5banks busy for write cycles: 45741
6banks busy for read cycles: 3407030
6banks busy for write cycles: 45728
7banks busy for read cycles: 1789808
7banks busy for write cycles: 456746
8banks busy for read cycles: 1066977
8banks busy for write cycles: 8200591

CPU 0 Branch Prediction Accuracy: 99.8986% MPKI: 0.01088 Average ROB Occupancy at Mispredict: 197.956
Branch types
NOT_BRANCH: 24731822 98.9273%
BRANCH_DIRECT_JUMP: 1334 0.005336%
BRANCH_INDIRECT: 0 0%
BRANCH_CONDITIONAL: 266863 1.06745%
BRANCH_DIRECT_CALL: 0 0%
BRANCH_INDIRECT_CALL: 0 0%
BRANCH_RETURN: 0 0%
BRANCH_OTHER: 0 0%

DRAM PAGES: 1048576
Allocated PAGES: 11618
