
*** ChampSim Multicore Out-of-Order Simulator ***

Warmup Instructions: 25000000
Simulation Instructions: 25000000
Number of CPUs: 1
LLC sets: 2048
LLC ways: 16
Off-chip DRAM Size: 4096 MB Channels: 1 Width: 64-bit Data Rate: 6400 MT/s
CPU 0 runs ../../traces/trace2.champsimtrace.xz
.xz
BTB has LRU replacement policy
ITLB has LRU replacement policy
DTLB has LRU replacement policy
STLB has LRU replacement policy
L1I has LRU replacement policy
L1D has LRU replacement policy
CPU 0 Region based L2 offset prefetcher
L2C has LRU replacement policy
LLC has LRU replacement policy
Heartbeat CPU 0 instructions: 10000000 cycles: 2546032 heartbeat IPC: 3.92768 cumulative IPC: 3.92768 (Simulation time: 0 hr 0 min 13 sec) 
Heartbeat CPU 0 instructions: 20000007 cycles: 5090275 heartbeat IPC: 3.93044 cumulative IPC: 3.92906 (Simulation time: 0 hr 0 min 25 sec) 

Warmup complete CPU 0 instructions: 25000002 cycles: 6361429 (Simulation time: 0 hr 0 min 31 sec) 

Heartbeat CPU 0 instructions: 30000000 cycles: 16681502 heartbeat IPC: 0.862721 cumulative IPC: 0.484493 (Simulation time: 0 hr 1 min 1 sec) 
Heartbeat CPU 0 instructions: 40000005 cycles: 37290617 heartbeat IPC: 0.485222 cumulative IPC: 0.484979 (Simulation time: 0 hr 1 min 59 sec) 
Heartbeat CPU 0 instructions: 50000004 cycles: 58383370 heartbeat IPC: 0.474096 cumulative IPC: 0.480567 (Simulation time: 0 hr 2 min 58 sec) 
Finished CPU 0 instructions: 25000002 cycles: 52021941 cumulative IPC: 0.480567 (Simulation time: 0 hr 2 min 58 sec) 

ChampSim completed all CPUs

Region of Interest Statistics

CPU 0 cumulative IPC: 0.480567 instructions: 25000002 cycles: 52021941
ITLB TOTAL     ACCESS:    3535981  HIT:    3535981  MISS:          0  HIT %:        100  MISS %:          0   MPKI: 0
ITLB LOAD TRANSLATION ACCESS:    3535981  HIT:    3535981  MISS:          0  HIT %:        100  MISS %:          0   MPKI: 0
ITLB PREFETCH  REQUESTED:          0  ISSUED:          0  USEFUL:          0  USELESS:          0
ITLB USEFUL LOAD PREFETCHES:          0 PREFETCH ISSUED TO LOWER LEVEL:          0  ACCURACY: -nan
ITLB TIMELY PREFETCHES:          0 LATE PREFETCHES: 0 DROPPED PREFETCHES: 0
ITLB PREFETCHES SAME FILL-ORIGIN LEVEL: 0 DIFFERENT FILL-ORIGIN LEVEL: 0
ITLB AVERAGE MISS LATENCY: -nan cycles
ITLB RQ	ACCESS:    4487704	FORWARD:          0	MERGED:     951724	TO_CACHE:    3535980

DTLB TOTAL     ACCESS:    3587520  HIT:    3553472  MISS:      34048  HIT %:    99.0509  MISS %:   0.949068   MPKI: 1.36192
DTLB LOAD TRANSLATION ACCESS:    3587520  HIT:    3553472  MISS:      34048  HIT %:    99.0509  MISS %:   0.949068   MPKI: 1.36192
DTLB PREFETCH  REQUESTED:          0  ISSUED:          0  USEFUL:          0  USELESS:          0
DTLB USEFUL LOAD PREFETCHES:          0 PREFETCH ISSUED TO LOWER LEVEL:          0  ACCURACY: -nan
DTLB TIMELY PREFETCHES:          0 LATE PREFETCHES: 0 DROPPED PREFETCHES: 0
DTLB PREFETCHES SAME FILL-ORIGIN LEVEL: 0 DIFFERENT FILL-ORIGIN LEVEL: 0
DTLB AVERAGE MISS LATENCY: 117.259 cycles
DTLB RQ	ACCESS:    5669937	FORWARD:          0	MERGED:    2065978	TO_CACHE:    3603959

STLB TOTAL     ACCESS:      34048  HIT:      15572  MISS:      18476  HIT %:    45.7354  MISS %:    54.2646   MPKI: 0.73904
STLB LOAD TRANSLATION ACCESS:      34048  HIT:      15572  MISS:      18476  HIT %:    45.7354  MISS %:    54.2646   MPKI: 0.73904
STLB PREFETCH  REQUESTED:          0  ISSUED:          0  USEFUL:          0  USELESS:          0
STLB USEFUL LOAD PREFETCHES:          0 PREFETCH ISSUED TO LOWER LEVEL:          0  ACCURACY: -nan
STLB TIMELY PREFETCHES:          0 LATE PREFETCHES: 0 DROPPED PREFETCHES: 0
STLB PREFETCHES SAME FILL-ORIGIN LEVEL: 0 DIFFERENT FILL-ORIGIN LEVEL: 0
STLB AVERAGE MISS LATENCY: 198.351 cycles
STLB RQ	ACCESS:      34048	FORWARD:          0	MERGED:          0	TO_CACHE:      34048

STLB Hit, L1D data hit: 0
STLB Hit, L2C data hit: 0
STLB Hit, LLC data hit: 0
STLB Hit, LLC data miss: 0
STLB STLB hints to L2: 0
L1D TOTAL     ACCESS:    5565614  HIT:    3615057  MISS:    1950557  HIT %:    64.9534  MISS %:    35.0466   MPKI: 78.0223
L1D LOAD      ACCESS:    1213962  HIT:     918409  MISS:     295553  HIT %:    75.6539  MISS %:    24.3461   MPKI: 11.8221
L1D RFO       ACCESS:    4351652  HIT:    2696648  MISS:    1655004  HIT %:    61.9684  MISS %:    38.0316   MPKI: 66.2002
L1D PREFETCH  REQUESTED:          0  ISSUED:          0  USEFUL:          0  USELESS:          0
L1D USEFUL LOAD PREFETCHES:          0 PREFETCH ISSUED TO LOWER LEVEL:          0  ACCURACY: -nan
L1D TIMELY PREFETCHES:          0 LATE PREFETCHES: 0 DROPPED PREFETCHES: 0
L1D PREFETCHES SAME FILL-ORIGIN LEVEL: 0 DIFFERENT FILL-ORIGIN LEVEL: 0
L1D AVERAGE MISS LATENCY: 345.973 cycles
L1D RQ	ACCESS:    4324987	FORWARD:          0	MERGED:    2780184	TO_CACHE:    1293671
L1D WQ	ACCESS:    4596609	FORWARD:     251132	MERGED:     220343	TO_CACHE:    4376266

L1D UNIQUE REGIONS ACCESSED: 0
L1D REGIONS CONFLICTS: 0
L1D Cross Page Prefetch Requests: 0
L1D Same Page Prefetch Requests: 0
L1D ROI Sum of L1D PQ occupancy: 0
L1D PREFETCHES PUSHED FROM L2C: 0
L1I TOTAL     ACCESS:    4487703  HIT:    4487703  MISS:          0  HIT %:        100  MISS %:          0   MPKI: 0
L1I LOAD      ACCESS:    4487703  HIT:    4487703  MISS:          0  HIT %:        100  MISS %:          0   MPKI: 0
L1I PREFETCH  REQUESTED:          0  ISSUED:          0  USEFUL:          0  USELESS:          0
L1I USEFUL LOAD PREFETCHES:          0 PREFETCH ISSUED TO LOWER LEVEL:          0  ACCURACY: -nan
L1I TIMELY PREFETCHES:          0 LATE PREFETCHES: 0 DROPPED PREFETCHES: 0
L1I PREFETCHES SAME FILL-ORIGIN LEVEL: 0 DIFFERENT FILL-ORIGIN LEVEL: 0
L1I AVERAGE MISS LATENCY: -nan cycles
L1I RQ	ACCESS:    6608123	FORWARD:          0	MERGED:    2120419	TO_CACHE:    4487704

BTB TOTAL     ACCESS:     446811  HIT:     446805  MISS:          6  HIT %:    99.9987  MISS %: 0.00134285   MPKI: 0.00024
BTB BRANCH_DIRECT_JUMP	ACCESS:      72121  HIT:      72120  MISS:          1
BTB BRANCH_INDIRECT	ACCESS:          0  HIT:          0  MISS:          0
BTB BRANCH_CONDITIONAL	ACCESS:     374690  HIT:     374685  MISS:          5
BTB BRANCH_DIRECT_CALL	ACCESS:          0  HIT:          0  MISS:          0
BTB BRANCH_INDIRECT_CALL	ACCESS:          0  HIT:          0  MISS:          0
BTB BRANCH_RETURN	ACCESS:          0  HIT:          0  MISS:          0
BTB BRANCH_OTHER ACCESS:          0  HIT:          0  MISS:          0

L2C TOTAL     ACCESS:    3973146  HIT:    2780544  MISS:    1192602  HIT %:    69.9834  MISS %:    30.0166   MPKI: 47.7041
L2C LOAD      ACCESS:     295553  HIT:      44132  MISS:     251421  HIT %:     14.932  MISS %:     85.068   MPKI: 10.0568
L2C DATA LOAD MPKI: 10.0568
L2C INSTRUCTION LOAD MPKI: 0
L2C RFO       ACCESS:    1655003  HIT:     760360  MISS:     894643  HIT %:    45.9431  MISS %:    54.0569   MPKI: 35.7857
L2C PREFETCH  ACCESS:     349109  HIT:     304953  MISS:      44156  HIT %:    87.3518  MISS %:    12.6482   MPKI: 1.76624
AGUS PREFETCH L1 MISS: 0
L2C DATA PREFETCH MPKI: 1.76624
L2C INSTRUCTION PREFETCH MPKI: 0
L2C WRITEBACK ACCESS:    1655003  HIT:    1654956  MISS:         47  HIT %:    99.9972  MISS %: 0.00283987   MPKI: 0.00188
L2C LOAD TRANSLATION ACCESS:      18478  HIT:      16143  MISS:       2335  HIT %:    87.3634  MISS %:    12.6366   MPKI: 0.0934
L2C PREFETCH  REQUESTED:     854046  ISSUED:     853844  USEFUL:      44130  USELESS:         26
L2C USEFUL LOAD PREFETCHES:      44130 PREFETCH ISSUED TO LOWER LEVEL:     127046  ACCURACY: 34.7355
L2C TIMELY PREFETCHES:      44130 LATE PREFETCHES: 52574 DROPPED PREFETCHES: 0
L2C PREFETCHES SAME FILL-ORIGIN LEVEL: 96730 DIFFERENT FILL-ORIGIN LEVEL: 30316
L2C AVERAGE MISS LATENCY: 558.102 cycles
L2C RQ	ACCESS:    1969037	FORWARD:          0	MERGED:          0	TO_CACHE:    1969036
L2C WQ	ACCESS:    1655003	FORWARD:          1	MERGED:          0	TO_CACHE:    1655003
L2C PQ	ACCESS:     853844	FORWARD:          0	MERGED:     179802	TO_CACHE:     674042

L2C Instructions Evicting Data 0
L2C Translations Evicting Data 2310
L2C Data Evicting Data 1187909
L2C Instructions Evicting Instructions 0
L2C Translations Evicting Instructions 0
L2C Data Evicting Instructions 0
L2C Instructions Evicting Translations 0
L2C Translations Evicting Translations 25
L2C Data Evicting Translations 2311
L2C Dense regions hint from L2: 0
PSCL5 TOTAL     ACCESS:      18476  HIT:      18476  MISS:          0  HIT %:        100  MISS %:          0   MPKI: 0
PSCL5 LOAD TRANSLATION ACCESS:      18476  HIT:      18476  MISS:          0  HIT %:        100  MISS %:          0   MPKI: 0
PSCL5 PREFETCH  REQUESTED:          0  ISSUED:          0  USEFUL:          0  USELESS:          0
PSCL5 USEFUL LOAD PREFETCHES:          0 PREFETCH ISSUED TO LOWER LEVEL:          0  ACCURACY: -nan
PSCL5 TIMELY PREFETCHES:          0 LATE PREFETCHES: 0 DROPPED PREFETCHES: 0
PSCL5 PREFETCHES SAME FILL-ORIGIN LEVEL: 0 DIFFERENT FILL-ORIGIN LEVEL: 0

PSCL4 TOTAL     ACCESS:      18476  HIT:      18476  MISS:          0  HIT %:        100  MISS %:          0   MPKI: 0
PSCL4 LOAD TRANSLATION ACCESS:      18476  HIT:      18476  MISS:          0  HIT %:        100  MISS %:          0   MPKI: 0
PSCL4 PREFETCH  REQUESTED:          0  ISSUED:          0  USEFUL:          0  USELESS:          0
PSCL4 USEFUL LOAD PREFETCHES:          0 PREFETCH ISSUED TO LOWER LEVEL:          0  ACCURACY: -nan
PSCL4 TIMELY PREFETCHES:          0 LATE PREFETCHES: 0 DROPPED PREFETCHES: 0
PSCL4 PREFETCHES SAME FILL-ORIGIN LEVEL: 0 DIFFERENT FILL-ORIGIN LEVEL: 0

PSCL3 TOTAL     ACCESS:      18476  HIT:      18476  MISS:          0  HIT %:        100  MISS %:          0   MPKI: 0
PSCL3 LOAD TRANSLATION ACCESS:      18476  HIT:      18476  MISS:          0  HIT %:        100  MISS %:          0   MPKI: 0
PSCL3 PREFETCH  REQUESTED:          0  ISSUED:          0  USEFUL:          0  USELESS:          0
PSCL3 USEFUL LOAD PREFETCHES:          0 PREFETCH ISSUED TO LOWER LEVEL:          0  ACCURACY: -nan
PSCL3 TIMELY PREFETCHES:          0 LATE PREFETCHES: 0 DROPPED PREFETCHES: 0
PSCL3 PREFETCHES SAME FILL-ORIGIN LEVEL: 0 DIFFERENT FILL-ORIGIN LEVEL: 0

PSCL2 TOTAL     ACCESS:      18476  HIT:      18456  MISS:         20  HIT %:    99.8918  MISS %:   0.108249   MPKI: 0.0008
PSCL2 LOAD TRANSLATION ACCESS:      18476  HIT:      18456  MISS:         20  HIT %:    99.8918  MISS %:   0.108249   MPKI: 0.0008
PSCL2 PREFETCH  REQUESTED:          0  ISSUED:          0  USEFUL:          0  USELESS:          0
PSCL2 USEFUL LOAD PREFETCHES:          0 PREFETCH ISSUED TO LOWER LEVEL:          0  ACCURACY: -nan
PSCL2 TIMELY PREFETCHES:          0 LATE PREFETCHES: 0 DROPPED PREFETCHES: 0
PSCL2 PREFETCHES SAME FILL-ORIGIN LEVEL: 0 DIFFERENT FILL-ORIGIN LEVEL: 0

LLC TOTAL     ACCESS:    2099062  HIT:     914540  MISS:    1184522  HIT %:     43.569  MISS %:     56.431   MPKI: 47.3809
LLC LOAD      ACCESS:     198847  HIT:       5350  MISS:     193497  HIT %:    2.69051  MISS %:    97.3095   MPKI: 7.73988
LLC RFO       ACCESS:     894632  HIT:       8051  MISS:     886581  HIT %:   0.899923  MISS %:    99.1001   MPKI: 35.4632
LLC PREFETCH  ACCESS:     108311  HIT:       6238  MISS:     102073  HIT %:    5.75934  MISS %:    94.2407   MPKI: 4.08292
AGUS PREFETCH L1 MISS: 0
LLC WRITEBACK ACCESS:     894937  HIT:     894901  MISS:         36  HIT %:     99.996  MISS %: 0.00402263   MPKI: 0.00144
LLC LOAD TRANSLATION ACCESS:       2335  HIT:          0  MISS:       2335  HIT %:          0  MISS %:        100   MPKI: 0.0934
LLC PREFETCH  REQUESTED:          0  ISSUED:          0  USEFUL:       5348  USELESS:      96645
LLC USEFUL LOAD PREFETCHES:       5348 PREFETCH ISSUED TO LOWER LEVEL:     114680  ACCURACY: 4.66341
LLC TIMELY PREFETCHES:       5348 LATE PREFETCHES: 12607 DROPPED PREFETCHES: 0
LLC PREFETCHES SAME FILL-ORIGIN LEVEL: 26078 DIFFERENT FILL-ORIGIN LEVEL: 0
LLC AVERAGE MISS LATENCY: 543.806 cycles
LLC RQ	ACCESS:    1095827	FORWARD:          0	MERGED:          0	TO_CACHE:    1095816
LLC WQ	ACCESS:     894937	FORWARD:         11	MERGED:          0	TO_CACHE:     894937
LLC PQ	ACCESS:     127046	FORWARD:          0	MERGED:        626	TO_CACHE:     126420

LLC Dense regions hint to LLC: 0

RAW hits: 2187343
Reg RAW dependents: 19402732
Loads Generated: 6512333
Loads sent to L1D: 4324987
Stores Generated: 4596601
Stores sent to L1D: 4596609
Major fault: 0 Minor fault: 21636
Allocated PAGES: 21636
Average branch resolution latency (in cycles): 65.079
CPU 0 L2C Region based offset prefetcher final stats

DRAM Statistics
 CHANNEL 0
 RQ ROW_BUFFER_HIT:      91763  ROW_BUFFER_MISS:    1092723
 DBUS_CONGESTED:          0
 WQ ROW_BUFFER_HIT:     187613  ROW_BUFFER_MISS:     698543  FULL:          0

 AVG_CONGESTED_CYCLE: -
 All warmup complete: 2
Channel 0 Bank busy for read cycles: 0
Channel 0 Bank busy for write cycles: 0
Channel 0
Rank 0
0banks busy for read cycles: 15382
0banks busy for write cycles: 0
1banks busy for read cycles: 1424493
1banks busy for write cycles: 90880
2banks busy for read cycles: 690557
2banks busy for write cycles: 90880
3banks busy for read cycles: 859140
3banks busy for write cycles: 90880
4banks busy for read cycles: 4371753
4banks busy for write cycles: 90880
5banks busy for read cycles: 5757421
5banks busy for write cycles: 90889
6banks busy for read cycles: 6438302
6banks busy for write cycles: 90968
7banks busy for read cycles: 6946842
7banks busy for write cycles: 979560
8banks busy for read cycles: 6464589
8banks busy for write cycles: 17528526

CPU 0 Branch Prediction Accuracy: 97.0469% MPKI: 0.5278 Average ROB Occupancy at Mispredict: 267.023
Branch types
NOT_BRANCH: 24553157 98.2126%
BRANCH_DIRECT_JUMP: 72121 0.288484%
BRANCH_INDIRECT: 0 0%
BRANCH_CONDITIONAL: 374692 1.49877%
BRANCH_DIRECT_CALL: 0 0%
BRANCH_INDIRECT_CALL: 0 0%
BRANCH_RETURN: 0 0%
BRANCH_OTHER: 0 0%

DRAM PAGES: 1048576
Allocated PAGES: 21636
